66

C 0.169328 1.284194 -0.165541
C 0.196846 -0.118385 -0.205455
C 1.406283 -0.816816 -0.246227
C 2.617709 -0.120614 -0.247866
C 2.607569 1.276012 -0.210137
C 1.394464 1.968412 -0.169941
C -1.141308 2.032329 -0.08847
C -1.61643 2.286879 1.354986
C -2.951019 3.035507 1.427352
C -3.436111 3.297259 2.857154
C -4.775679 4.038429 2.924611
C -5.265616 4.306924 4.351313
C -6.607651 5.043878 4.412872
C -7.099042 5.319811 5.837617
C -8.442045 6.055186 5.895991
C -8.931493 6.337925 7.320076
C -10.27427 7.0737 7.378674
C -10.759667 7.360422 8.803365
C -12.10177 8.09721 8.865089
C -12.582685 8.384102 10.291336
C -13.924587 9.120898 10.357591
C -14.402577 9.405543 11.785158
C -15.744864 10.141804 11.855996
C -16.213974 10.417735 13.28606
H -0.747557 -0.671195 -0.211053
H 1.40171 -1.909643 -0.281843
H 3.565758 -0.663681 -0.284308
H 3.549709 1.830926 -0.217022
H 1.396459 3.062394 -0.146397
H -1.046912 3.000241 -0.608992
H -1.920527 1.466213 -0.625863
H -1.703485 1.320913 1.881574
H -0.838499 2.853699 1.89497
H -2.86153 3.997294 0.891001
H -3.720292 2.460798 0.880891
H -3.523709 2.336779 3.395801
H -2.668552 3.875484 3.401949
H -4.690255 4.997517 2.382849
H -5.540667 3.456552 2.379824
H -5.350271 3.349559 4.896113
H -4.501525 4.891709 4.894159
H -6.524336 5.999907 3.865408
H -7.370506 4.456614 3.870876
H -7.181736 4.365513 6.388125
H -6.336112 5.909203 6.377111
H -8.36016 7.008342 5.343358
H -9.204941 5.464274 5.35808
H -9.012905 5.38611 7.875036
H -8.167605 6.929735 7.855557
H -10.193387 8.025028 6.822768
H -11.038737 6.481266 6.844746
H -10.840055 6.409737 9.36043
H -9.993806 7.952693 9.335488
H -12.021955 9.04816 8.308438
H -12.868329 7.50499 8.333954
H -12.661577 7.433055 10.847959
H -11.815071 8.97582 10.821525
H -13.846442 10.072524 9.801778
H -14.692556 8.529148 9.827905
H -14.480747 8.453595 12.34069
H -13.634695 9.996668 12.315935
H -15.666578 11.093751 11.302242
H -16.511341 9.550204 11.325452
H -17.180018 10.945259 13.301576
H -16.339148 9.481608 13.853444
H -15.487524 11.038889 13.833861
