37

C -6.868072 0.420194 0.0
C -5.591776 -0.427995 0.0
C -4.305155 0.408111 0.0
C -3.020842 -0.430731 0.0
C -1.736212 0.408143 0.0
C -0.451847 -0.430888 0.0
C 0.833053 0.407503 0.0
C 2.115623 -0.434255 0.0
C 3.402073 0.40166 0.0
C 4.680868 -0.445147 0.0
C 5.964323 0.391807 0.0
C 7.241501 -0.424455 0.0
O 8.371341 0.051558 0.0
H -7.771678 -0.209267 0.0
H -6.916358 1.071274 -0.888199
H -6.916358 1.071274 0.888199
H -5.592548 -1.094287 -0.880304
H -5.592548 -1.094287 0.880304
H -4.305691 1.075693 0.880443
H -4.305691 1.075693 -0.880443
H -3.020751 -1.097918 -0.88056
H -3.020751 -1.097918 0.88056
H -1.736187 1.075315 0.880497
H -1.736187 1.075315 -0.880497
H -0.451888 -1.098018 -0.880523
H -0.451888 -1.098018 0.880523
H 0.833988 1.074477 0.880575
H 0.833988 1.074477 -0.880575
H 2.114404 -1.101076 -0.880654
H 2.114404 -1.101076 0.880654
H 3.406324 1.068709 0.880339
H 3.406324 1.068709 -0.880339
H 4.678453 -1.111545 -0.880502
H 4.678453 -1.111545 0.880502
H 6.006251 1.063151 0.876054
H 6.006251 1.063151 -0.876054
H 7.104805 -1.537788 0.0
