25

C 0.0 -4.057886 -0.59062
C 0.0 -2.98994 -1.48728
C 0.0 -1.665218 -1.025906
C 0.0 -1.369734 0.345151
C 0.0 -2.466412 1.233867
C 0.0 -3.785859 0.783023
C 0.0 0.0 1.017459
C 0.0 1.369734 0.345151
C 0.0 1.665218 -1.025906
C 0.0 2.98994 -1.48728
C 0.0 4.057886 -0.59062
C 0.0 3.785859 0.783023
C 0.0 2.466412 1.233867
H 0.0 -5.089464 -0.951845
H 0.0 -3.17658 -2.564685
H 0.0 -0.873961 -1.769603
H 0.0 -2.273479 2.311609
H 0.0 -4.605079 1.506892
H 0.868138 0.0 1.700668
H -0.868138 0.0 1.700668
H 0.0 0.873961 -1.769603
H 0.0 3.17658 -2.564685
H 0.0 5.089464 -0.951845
H 0.0 4.605079 1.506892
H 0.0 2.273479 2.311609
