20

C -2.78796 -0.846966 -0.026553
C -2.357329 -2.176002 0.092402
C -0.984536 -2.438645 0.102766
C -0.049813 -1.402368 -0.001361
C -0.477418 -0.06469 -0.125842
C -1.866186 0.192974 -0.135201
N 0.421631 0.99418 -0.284412
C 1.836681 0.861954 0.063196
C 2.54478 2.209942 -0.038494
H -3.856999 -0.615858 -0.035126
H -3.081146 -2.990365 0.175191
H -0.625276 -3.467209 0.196911
H 1.015597 -1.638929 0.014733
H -2.217141 1.225361 -0.231632
H 0.026396 1.901154 -0.029849
H 2.304149 0.146904 -0.632622
H 1.962765 0.443365 1.081528
H 2.43177 2.640112 -1.045247
H 3.618968 2.095638 0.167078
H 2.141066 2.929445 0.692534
