23

C -4.552667 -0.533134 5e-05
C -3.362343 0.393627 -0.024189
O -2.188378 -0.30975 -0.032849
C -0.976839 0.510352 0.00781
C 0.225152 -0.418759 -0.038307
C 1.55121 0.351879 0.013925
C 2.786088 -0.557806 -0.035106
C 4.109309 0.211969 0.025346
O -3.424674 1.617969 -0.012456
H -4.334423 -1.494502 -0.483931
H -5.406323 -0.040233 -0.482543
H -4.824197 -0.734006 1.049242
H -0.996857 1.114548 0.926969
H -0.994778 1.205048 -0.844542
H 0.177496 -1.02629 -0.957077
H 0.169449 -1.124379 0.807302
H 1.586641 0.961353 0.93424
H 1.594878 1.069142 -0.824909
H 2.753422 -1.165383 -0.955874
H 2.741047 -1.275864 0.802108
H 4.20691 0.91127 -0.821029
H 4.97288 -0.470145 -0.006369
H 4.186998 0.803093 0.952189
