29

O 6.229369 1.570545 -0.038617
C 6.073443 0.359656 -0.023668
O 4.892133 -0.30641 -0.013501
C 3.69436 0.545602 -0.021274
C 2.473051 -0.356918 -0.003155
C 1.163336 0.44376 -0.009207
C -0.087677 -0.44445 0.007784
C -1.402225 0.345482 0.001448
C -2.654246 -0.540576 0.016828
C -3.969867 0.248183 0.009621
C -5.216868 -0.642066 0.023433
H 6.894539 -0.381888 -0.016905
H 3.730161 1.180347 -0.918757
H 3.736713 1.206429 0.856952
H 2.514473 -1.002837 0.889368
H 2.507175 -1.027955 -0.87725
H 1.134248 1.096934 -0.899213
H 1.141621 1.121101 0.862673
H -0.058138 -1.098527 0.897318
H -0.064419 -1.12234 -0.863855
H -1.430166 1.000566 -0.887695
H -1.424391 1.023559 0.873257
H -2.627589 -1.196098 0.90591
H -2.632386 -1.219062 -0.854919
H -3.995876 0.903107 -0.878836
H -3.991994 0.925189 0.881396
H -5.245693 -1.305604 -0.856277
H -6.1404 -0.042604 0.017393
H -5.242684 -1.283125 0.919749
