19

C -2.887136 -0.557447 0.016761
C -1.604519 0.187212 0.350916
C -0.309214 -0.467421 -0.10863
C 0.991676 0.232332 0.312311
C 2.176119 -0.743787 0.261449
O -1.630073 1.240092 0.990506
C 1.262979 1.4783 -0.54432
H -2.804714 -1.150917 -0.906362
H -3.7243 0.14965 -0.055245
H -3.108804 -1.258605 0.840037
H -0.362879 -0.566414 -1.209942
H -0.334299 -1.512565 0.254694
H 0.85736 0.566841 1.354078
H 3.106154 -0.254298 0.590539
H 2.345195 -1.118501 -0.762201
H 2.010634 -1.617227 0.912702
H 1.390725 1.206772 -1.606627
H 2.186363 1.984309 -0.221438
H 0.438731 2.201672 -0.469229
