13

C -1.608928 -2.151763 -0.050054
C -0.432641 -1.495018 0.034802
C -0.280099 -0.053236 -0.029639
C 0.902703 0.59457 0.060428
C 1.086932 2.079216 0.001817
H -1.66246 -3.241662 0.006329
H -2.554763 -1.616232 -0.17996
H 0.48953 -2.07418 0.162701
H -1.198684 0.533393 -0.159211
H 1.812798 -0.005105 0.189635
H 0.130779 2.604448 -0.140567
H 1.761642 2.365981 -0.824176
H 1.55319 2.459589 0.927894
