24

C -0.037898 1.351711 0.031701
C -0.014949 -0.054595 -0.017999
C 1.171781 2.052297 0.080936
C -1.31538 2.115008 -0.10615
C 1.216305 -0.716224 -0.068346
C -1.268411 -0.85627 0.119214
C 2.403038 1.389473 0.054502
O -1.341606 3.226599 0.695908
O -2.210021 1.828131 -0.888498
C 2.425969 -0.014272 -0.046656
O -1.256339 -1.973406 -0.675691
O -2.176112 -0.591949 0.895008
C 3.657024 2.174198 0.268672
C 3.703449 -0.757284 -0.268432
O 3.642095 3.365125 -0.410679
O 4.566611 1.835572 1.012112
O 3.729565 -1.951069 0.405541
O 4.598439 -0.385879 -1.013711
H 1.153911 3.140496 0.137662
H 1.234268 -1.804416 -0.125158
H -2.198474 3.675925 0.475969
H -2.099763 -2.447765 -0.456424
H 4.486035 3.815509 -0.14756
H 4.586464 -2.372916 0.13708
