20

C -2.280031 -0.720377 0.003921
C -1.165307 0.312198 -0.013554
O 0.112101 -0.39985 0.013547
C 1.226441 0.395558 -0.032129
C 2.483274 -0.452538 -0.037562
C 3.768908 0.359394 0.096005
O 1.188069 1.620259 -0.072401
H -2.176227 -1.346991 0.904719
C -3.665853 -0.066972 -0.025103
H -2.160142 -1.393829 -0.860202
H -1.211511 0.983648 0.857435
H -1.19903 0.940483 -0.916427
H 2.47722 -1.034567 -0.975327
H 2.390787 -1.205025 0.762436
H 3.86383 1.090242 -0.719613
H 4.646218 -0.304603 0.070654
H 3.789624 0.919571 1.042218
H -4.45925 -0.829367 -0.013842
H -3.806405 0.544335 -0.931167
H -3.822717 0.588433 0.84639
