20

C -3.238421 -0.476999 0.0
C -1.98212 0.400027 0.0
C -0.676961 -0.405512 0.0
C 0.585373 0.467113 0.0
C 1.885208 -0.35683 0.0
C 3.113818 0.538857 0.0
H -3.272793 -1.128809 -0.888147
H -4.154976 0.132968 0.0
H -3.272793 -1.128809 0.888147
H -1.998308 1.067088 0.879711
H -1.998308 1.067088 -0.879711
H -0.659472 -1.073115 -0.879989
H -0.659472 -1.073115 0.879989
H 0.570568 1.133088 0.880974
H 0.570568 1.133088 -0.880974
H 1.907985 -1.017508 -0.881392
H 1.907985 -1.017508 0.881392
I 5.006018 -0.600229 0.0
H 3.183051 1.169559 0.893885
H 3.183051 1.169559 -0.893885
