24

C -2.37006 -0.103991 -0.009381
C -1.703576 -1.033591 -0.822859
C -0.308174 -1.049695 -0.910602
C 0.482136 -0.137914 -0.193716
C -0.185542 0.794419 0.614654
C -1.581194 0.809564 0.705745
C -3.876655 -0.102954 0.1007
C 2.601281 1.162893 -0.736626
C 2.000523 -0.181108 -0.284805
C 2.633981 -0.65251 1.038889
H -2.285342 -1.758065 -1.402222
H 0.180156 -1.788355 -1.554558
H 0.388602 1.527813 1.187914
H -2.068203 1.552246 1.345689
H -4.240995 -1.01219 0.607924
H -4.354274 -0.074931 -0.891894
H -4.238393 0.763562 0.673157
H 2.159713 1.499421 -1.686566
H 3.690294 1.074225 -0.877327
H 2.430032 1.953123 0.011522
H 2.251565 -0.929497 -1.055419
H 3.730173 -0.718954 0.946808
H 2.254463 -1.64226 1.33434
H 2.409489 0.04875 1.858634
