12

C -0.294071 0.320395 0.142376
C -0.201661 -1.204871 0.075031
C 1.045398 0.968731 -0.172227
O -1.316964 0.66928 -0.821272
O -0.985958 -1.797729 1.030389
O 0.473171 -1.838445 -0.721833
H -0.631503 0.595935 1.156229
H 0.957046 2.064734 -0.107878
H 1.816372 0.651399 0.546605
H 1.373152 0.691514 -1.182681
H -1.361883 1.652165 -0.829314
H -0.873099 -2.773109 0.884575
