18

C -0.0905 0.579137 -3.482556
C -0.456275 -0.192285 -2.44949
C 0.377432 -0.447648 -1.227317
N -0.387384 -0.169137 0.0
C 0.377432 -0.447648 1.227317
C -0.456275 -0.192285 2.44949
C -0.0905 0.579137 3.482556
H -0.735163 0.719701 -4.354226
H 0.874514 1.097568 -3.497692
H -1.434038 -0.6868 -2.459944
H 1.330401 0.120256 -1.292103
H 0.65411 -1.51715 -1.197874
H -0.653578 0.82358 0.0
H 1.330401 0.120256 1.292103
H 0.65411 -1.51715 1.197874
H -1.434038 -0.6868 2.459944
H -0.735163 0.719701 4.354226
H 0.874514 1.097568 3.497692
