10

N -0.424218 1.027164 -0.032065
C -0.476236 -0.390689 -0.048925
C 0.691196 1.763005 -0.017119
N 0.764132 -0.997085 -0.191877
N -1.652319 -0.910625 -0.000961
N 1.686068 2.396824 0.016558
H -1.340319 1.481296 0.023235
H 0.783209 -1.966328 0.131751
H 1.572826 -0.46344 0.146418
H -1.604339 -1.940121 -0.027015
