16

C -0.663542 0.364213 0.106093
C -0.621835 -1.160349 0.119572
O 0.679711 0.853307 0.244351
C 0.112198 -1.757081 -1.079818
O -0.06271 -1.628588 1.367161
C 0.721092 2.275095 0.388412
H -1.111128 0.734952 -0.836481
H -1.282248 0.72453 0.948424
H -1.665389 -1.51334 0.124416
H -0.363362 -1.455568 -2.026817
H 1.158991 -1.421392 -1.103186
H 0.100333 -2.854295 -1.019607
H 0.762646 -1.103141 1.487833
H 0.319684 2.778846 -0.509456
H 0.141792 2.60624 1.268904
H 1.773769 2.556572 0.520199
