14

C 1.208613 0.0 0.245538
C 1.210071 0.0 -1.149517
C 0.0 0.0 -1.847387
C -1.210071 0.0 -1.149517
C -1.208613 0.0 0.245538
C 0.0 0.0 0.971383
H 2.155795 0.0 -1.694921
Cl 0.0 0.0 -3.60699
H 2.162702 0.0 0.78079
H -2.155795 0.0 -1.694921
H -2.162702 0.0 0.78079
N 0.0 0.0 2.355385
H 0.867789 0.0 2.881914
H -0.867789 0.0 2.881914
