27

C 0.045422 -0.233504 0.258467
C 0.981912 -1.383638 -0.159519
C 2.436907 -1.146707 0.270622
C 2.96859 0.193066 -0.258061
C 2.052978 1.351753 0.160561
C 0.596085 1.108152 -0.26339
C -1.401372 -0.508169 -0.190964
C -2.459663 0.464738 0.347391
C -3.888043 0.079647 -0.054911
H 0.050851 -0.187729 1.365366
H 0.613679 -2.335773 0.259898
H 0.939105 -1.495873 -1.259349
H 3.075069 -1.977492 -0.074041
H 2.493867 -1.151008 1.374563
H 3.024223 0.152175 -1.361447
H 3.99746 0.366985 0.098734
H 2.415285 2.30216 -0.266232
H 2.096747 1.470792 1.258786
H 0.533258 1.110722 -1.368064
H -0.034158 1.943096 0.082085
H -1.675204 -1.532964 0.120624
H -1.440027 -0.513175 -1.296196
H -2.388278 0.505925 1.448911
H -2.248616 1.486491 -0.008507
H -4.158593 -0.917571 0.330414
H -4.001619 0.049178 -1.151472
H -4.625866 0.798722 0.335731
