14

C -1.918962 -0.705635 0.004023
C -0.900956 0.421063 0.008021
C 0.563622 0.1076 -0.006325
C 1.490484 1.293032 0.002291
O -1.274087 1.602525 0.03139
C 1.007143 -1.166807 -0.020873
H -1.768699 -1.387315 -0.847455
H -2.923652 -0.269755 -0.051934
H -1.840265 -1.308493 0.92314
H 1.318548 1.927522 -0.881073
H 2.542422 0.975021 0.013341
H 1.299187 1.931645 0.878253
H 2.076322 -1.398125 -0.024339
H 0.328894 -2.022277 -0.028461
