30

C -0.856009 0.158577 -0.038143
C -0.323786 -1.149934 0.040813
C 1.070904 -1.296082 0.052816
C 1.934799 -0.197609 -0.005682
C 1.423878 1.104616 -0.076903
C 0.027172 1.246907 -0.094504
C -2.912511 0.405077 -1.531336
C -2.348168 0.42506 -0.099338
C -1.511695 -2.761409 1.622256
C -1.196688 -2.383888 0.162523
C 3.809362 2.12386 0.004515
C 2.301665 2.34378 -0.135156
H 1.496263 -2.303512 0.107216
H 3.013709 -0.368157 0.006983
H -0.397611 2.256218 -0.14698
H -2.413457 1.156733 -2.16154
H -3.99259 0.622787 -1.53372
H -2.763179 -0.574739 -2.010214
H -2.895739 -0.303567 0.518157
H -2.55176 1.41017 0.350314
H -2.121677 -3.677487 1.671783
H -2.064456 -1.958161 2.132989
H -0.586148 -2.936864 2.191921
H -2.140021 -2.247534 -0.388004
H -0.686046 -3.231102 -0.323863
H 4.209256 1.495801 -0.80668
H 4.065661 1.642322 0.961078
H 4.340056 3.08723 -0.034738
H 2.103408 2.868121 -1.08711
H 1.965409 3.042786 0.650547
