23

C -2.312903 -0.687788 0.310806
C -1.690563 -1.986725 -0.214299
C -0.238739 -2.119216 0.266641
C 0.532325 -0.830415 0.133253
C -0.032194 0.370861 -0.094595
C -1.534427 0.535474 -0.194468
C 0.768743 1.651447 -0.249587
C 2.24648 1.494422 -0.462644
C 3.19806 1.975671 0.350101
H -2.29496 -0.699246 1.414113
H -3.371642 -0.611838 0.014519
H -2.282182 -2.860434 0.102603
H -1.707671 -1.975873 -1.317743
H 0.277217 -2.919136 -0.292941
H -0.219727 -2.450048 1.323402
H 1.621485 -0.893273 0.234358
H -1.806074 0.752298 -1.245794
H -1.838994 1.435149 0.370169
H 0.587376 2.299963 0.627176
H 0.346692 2.209166 -1.109651
H 2.544169 0.943206 -1.361768
H 4.261236 1.844718 0.131
H 2.946294 2.521619 1.26535
