11

C -1.269701 -0.302697 0.045212
C -0.022544 0.560735 -0.208436
C 1.339633 -0.084212 0.080295
F -1.16445 -1.489569 -0.62367
F -2.378123 0.349171 -0.429655
F -1.475097 -0.561634 1.362121
F -0.123184 1.716749 0.579434
H -0.038151 0.859888 -1.26687
H 2.115568 0.69347 0.135597
F 1.665377 -0.959356 -0.943865
F 1.350672 -0.782546 1.269836
