11

C -1.388083 -0.061009 0.0
C 0.007643 0.578877 0.0
C 1.100841 -0.477747 0.0
H -1.545655 -0.6909 -0.890029
H -2.168156 0.716267 0.0
H -1.545655 -0.6909 0.890029
H 0.124204 1.229753 0.880543
H 0.124204 1.229753 -0.880543
I 3.129311 0.39283 0.0
H 1.080672 -1.113461 -0.893194
H 1.080672 -1.113461 0.893194
