32

C -3.185544 0.329392 0.009084
C -1.936088 -0.574127 0.000132
C -0.684083 0.347013 0.00027
C 0.684083 -0.347013 0.00027
C 1.936088 0.574127 0.000132
C 1.964722 1.469711 1.254578
C -1.972495 -1.456686 -1.263437
C -1.964722 -1.469711 1.254578
C 1.972495 1.456686 -1.263437
C 3.185544 -0.329392 0.009084
H -3.204647 0.976675 0.90075
H -4.110118 -0.269653 0.011241
H -3.212885 0.982719 -0.877991
H -0.759152 1.008885 0.879559
H -0.75806 1.006761 -0.880817
H 0.75806 -1.006761 -0.880817
H 0.759152 -1.008885 0.879559
H 1.120143 2.174278 1.27708
H 2.889479 2.067091 1.286765
H 1.925452 0.866859 2.176118
H -1.934184 -0.844427 -2.178804
H -2.899229 -2.050797 -1.298635
H -1.130065 -2.163634 -1.295893
H -2.889479 -2.067091 1.286765
H -1.925452 -0.866859 2.176118
H -1.120143 -2.174278 1.27708
H 2.899229 2.050797 -1.298635
H 1.130065 2.163634 -1.295893
H 1.934184 0.844427 -2.178804
H 3.204647 -0.976675 0.90075
H 4.110118 0.269653 0.011241
H 3.212885 -0.982719 -0.877991
