56

C -11.795161 -0.239137 -0.047332
C -10.594636 0.712733 -0.050313
C -9.244581 -0.012954 -0.007461
C -8.032764 0.927834 -0.018133
C -6.693023 0.181744 0.027806
C -5.499768 1.122582 -0.000891
O -4.287875 0.303938 0.04467
C -3.106832 0.991978 -0.026396
C -1.938754 0.027857 -0.007394
C -0.567648 0.700301 0.072293
C 0.570274 -0.325581 0.036063
C 1.957758 0.313303 0.100343
C 3.085868 -0.696316 0.028381
O 4.301649 -0.070211 0.070851
C 5.458313 -0.965612 0.004127
C 6.719636 -0.118731 0.02954
C 7.986597 -0.984133 -0.028474
C 9.285819 -0.16944 -0.000304
C 10.552197 -1.034657 -0.04532
C 11.848998 -0.219361 -0.012361
O -3.031953 2.213314 -0.107209
O 2.950631 -1.912368 -0.058407
H -11.774596 -0.912482 -0.919741
H -12.748027 0.311861 -0.075978
H -11.803777 -0.871243 0.855645
H -10.666379 1.398977 0.81177
H -10.63542 1.353753 -0.948275
H -9.176165 -0.703736 -0.867199
H -9.20283 -0.651991 0.89279
H -8.099664 1.619969 0.840156
H -8.071821 1.562504 -0.921147
H -6.622306 -0.511637 -0.826933
H -6.640335 -0.43934 0.937295
H -5.491768 1.809063 0.858953
H -5.475694 1.73541 -0.914125
H -2.014325 -0.593692 -0.916851
H -2.088959 -0.675746 0.828111
H -0.510099 1.305029 0.99203
H -0.466139 1.415093 -0.760106
H 0.499438 -0.932769 -0.880815
H 0.463866 -1.039665 0.868764
H 2.087569 0.900246 1.025855
H 2.101274 1.038568 -0.718686
H 5.382481 -1.566259 -0.914155
H 5.412252 -1.658955 0.857244
H 6.725593 0.496725 0.944307
H 6.703827 0.583144 -0.820472
H 7.965689 -1.604211 -0.942144
H 7.984909 -1.694575 0.816928
H 9.305131 0.458586 0.908296
H 9.294865 0.534534 -0.851385
H 10.532921 -1.65945 -0.95533
H 10.540075 -1.740642 0.803184
H 11.911624 0.468324 -0.871579
H 12.735227 -0.872124 -0.044179
H 11.916815 0.389646 0.90369
