16

C -0.018817 0.778396 0.120047
C 0.018817 -0.778396 0.120047
C 1.397756 1.328688 0.064798
O -0.767907 1.285673 -0.968618
C -1.397756 -1.328688 0.064798
O 0.767907 -1.285673 -0.968618
O 2.130164 1.021065 1.17062
O 1.821207 1.983176 -0.879389
O -2.130164 -1.021065 1.17062
O -1.821207 -1.983176 -0.879389
H -0.480294 1.103061 1.067644
H 0.480294 -1.103061 1.067644
H -0.090675 1.663479 -1.586878
H 0.090675 -1.663479 -1.586878
H 3.030692 1.405849 1.011776
H -3.030692 -1.405849 1.011776
