12

C -1.057474 -0.841302 0.150186
O -0.361183 -2.059886 0.145918
C 1.019469 -1.757017 -0.008118
C 1.15094 -0.290954 -0.096556
C -0.070523 0.273392 -0.001775
O -2.264826 -0.778965 0.262289
C -0.500286 1.696284 -0.037481
O 1.8625 -2.627419 -0.04933
H 2.119409 0.193139 -0.221131
H -1.157295 1.874588 -0.904414
H 0.358192 2.378526 -0.094519
H -1.098923 1.939615 0.854932
