36

C -1.438139 -0.011676 0.107428
C -0.73546 -1.219944 0.012491
C 0.663491 -1.25824 -0.081858
C 1.436902 -0.089831 -0.084836
C 0.730064 1.124102 0.007708
C -0.660373 1.162303 0.100114
C -3.51103 0.732594 -1.097684
C -2.970611 0.067347 0.191335
C -3.388691 0.916199 1.414812
C -3.620619 -1.322839 0.329789
C 3.569087 0.600835 1.061268
C 2.970288 -0.090908 -0.186318
C 3.402158 0.685451 -1.453878
C 3.550704 -1.514845 -0.273228
H -1.27357 -2.169542 0.012529
H 1.145057 -2.23514 -0.152829
H 1.273978 2.07206 0.00602
H -1.147291 2.138472 0.165502
H -4.6114 0.790248 -1.070672
H -3.220697 0.157344 -1.989875
H -3.123526 1.755159 -1.218523
H -4.486885 0.975951 1.482707
H -3.006323 1.945437 1.352933
H -3.013247 0.474864 2.350635
H -3.419684 -1.961628 -0.543668
H -4.713399 -1.215659 0.410426
H -3.27173 -1.851334 1.230123
H 4.669074 0.625379 0.9986
H 3.291576 0.064118 1.981328
H 3.21804 1.638379 1.161125
H 2.99431 0.217014 -2.362502
H 4.500807 0.7014 -1.540252
H 3.055481 1.729269 -1.431255
H 4.647811 -1.463506 -0.348932
H 3.18497 -2.055841 -1.15924
H 3.308877 -2.11299 0.618677
