36

C -5.869589 -1.945334 0.001755
C -5.482844 -3.291972 0.010078
C -4.122371 -3.609492 0.013261
C -3.157596 -2.593663 0.008343
C -3.527893 -1.240077 0.000683
C -4.90283 -0.937665 -0.002726
C -2.519566 -0.104122 -0.005869
C -1.035474 -0.484862 0.01424
C -0.109435 0.738778 0.003948
C 1.38177 0.37935 0.011816
C 2.311284 1.599527 -0.009228
C 3.802078 1.238596 -0.002501
C 4.735375 2.456143 -0.019754
C 6.221638 2.083567 -0.010137
H -6.930397 -1.678592 -0.000791
H -6.236056 -4.084521 0.013896
H -3.80348 -4.655638 0.02029
H -2.101074 -2.870345 0.010703
H -5.218723 0.110724 -0.009528
H -2.730517 0.551019 0.858648
H -2.7134 0.526364 -0.892568
H -0.801906 -1.122669 -0.855777
H -0.820243 -1.094963 0.908619
H -0.33542 1.375218 0.878241
H -0.331405 1.357931 -0.883722
H 1.605748 -0.264424 -0.857705
H 1.604026 -0.232963 0.904263
H 2.088525 2.243038 0.860891
H 2.088243 2.212806 -0.900884
H 4.026065 0.596965 -0.873877
H 4.024508 0.622753 0.88774
H 4.512026 3.097873 0.850585
H 4.515894 3.070478 -0.910632
H 6.863919 2.978063 -0.021117
H 6.487453 1.473111 -0.888696
H 6.481667 1.498996 0.887513
