30

C -5.386315 -0.062272 -0.027685
C -4.056034 0.697211 -0.041381
C -2.826491 -0.220661 -0.033481
C -1.49076 0.532265 -0.044166
C -0.261841 -0.386243 -0.034176
C 1.072702 0.369216 -0.042785
C 2.302267 -0.549164 -0.03032
C 3.633514 0.21657 -0.037527
C 4.849803 -0.709488 -0.020322
S 6.478168 0.154152 -0.09319
H -5.482256 -0.719075 -0.908018
H -6.244997 0.627021 -0.032381
H -5.474989 -0.698031 0.868662
H -4.010417 1.372503 0.831071
H -4.015072 1.352092 -0.929395
H -2.871902 -0.896657 -0.906483
H -2.868909 -0.877098 0.854452
H -1.44705 1.20813 0.82883
H -1.448584 1.188244 -0.932187
H -0.304031 -1.06185 -0.907336
H -0.304134 -1.042281 0.853787
H 1.114748 1.044802 0.83027
H 1.116158 1.024569 -0.93088
H 2.263044 -1.223773 -0.904258
H 2.258956 -1.20462 0.857811
H 3.676397 0.887445 0.837808
H 3.690544 0.868816 -0.924189
H 4.859168 -1.358139 -0.91018
H 4.842375 -1.374224 0.856116
H 6.335938 0.840539 1.071531
