54

C 0.97914 1.246864 -0.335679
C 0.941515 -0.161716 -0.270617
C 2.24172 2.023409 -0.119992
C -0.221117 1.956521 -0.477771
C 2.187007 -0.990893 -0.280894
C -0.297299 -0.81631 -0.324932
O 2.2765 3.11478 -0.941921
O 3.085492 1.766154 0.7303
C -1.447743 1.293488 -0.538488
O 2.037727 -2.091022 0.516801
O 3.176694 -0.759089 -0.965172
C -1.486428 -0.098555 -0.459072
C 3.373118 4.055304 -0.716121
C 3.125345 -3.067385 0.468713
C 3.026401 5.329579 -1.468607
C 2.632923 -4.31938 1.175573
C 4.074451 6.437134 -1.310553
C 3.652832 -5.462738 1.163254
C 3.663962 7.732654 -2.020547
C 3.123972 -6.729956 1.845099
C 4.673621 8.876249 -1.880667
C 4.108606 -7.903438 1.83676
C 4.22591 10.161362 -2.582456
C 3.556247 -9.158728 2.516505
H -0.184447 3.046026 -0.523538
H -0.317751 -1.906187 -0.278403
H -2.371309 1.868333 -0.642361
H -2.44049 -0.629632 -0.506955
H 3.47653 4.22339 0.365228
H 4.305727 3.595586 -1.075549
H 3.386262 -3.253467 -0.583082
H 4.00699 -2.628949 0.95934
H 2.890068 5.092314 -2.536507
H 2.050144 5.694797 -1.107093
H 2.368373 -4.064268 2.215216
H 1.698661 -4.652515 0.693225
H 4.237029 6.644898 -0.238142
H 5.04692 6.091993 -1.703648
H 3.932889 -5.698725 0.121244
H 4.584213 -5.139276 1.660269
H 3.497243 7.522526 -3.092297
H 2.68585 8.064605 -1.627794
H 2.847925 -6.493124 2.888433
H 2.184525 -7.040072 1.352988
H 4.845225 9.082063 -0.809603
H 5.649216 8.554462 -2.284824
H 4.384065 -8.14033 0.794138
H 5.04627 -7.596782 2.332095
H 4.084079 9.998038 -3.662694
H 3.267602 10.523868 -2.176894
H 4.964391 10.968547 -2.462268
H 3.303897 -8.965486 3.571422
H 2.638016 -9.511085 2.020035
H 4.283294 -9.984832 2.495507
