15

C -0.850771 -0.845 -0.037391
C 0.089724 -1.859018 -0.225081
C 1.456461 -1.559567 -0.258389
C 1.873727 -0.234886 -0.10838
C 0.93455 0.784665 0.078157
C -0.435102 0.487836 0.121798
C -1.476511 1.581958 0.254234
Cl -0.818706 3.111064 0.956717
Cl -2.148903 1.974439 -1.39689
Cl -2.859954 1.065519 1.308194
H -1.914259 -1.089832 -0.012683
H -0.251663 -2.891239 -0.341346
H 2.191249 -2.357061 -0.399193
H 2.937805 0.015771 -0.132596
H 1.272355 1.815351 0.192849
