21

C 0.839493 0.318004 -0.008172
C 0.969356 -1.076618 -0.043152
C 2.236324 -1.673316 -0.022109
C 3.389493 -0.885116 0.03071
C 3.267338 0.509477 0.068784
C 2.003603 1.103928 0.050668
C -0.493423 1.023527 -0.046081
O -1.579238 0.056094 -0.009602
C -2.83651 0.603749 -0.050843
C -3.895276 -0.467291 0.020491
O -3.04972 1.80843 -0.112012
H 0.074151 -1.699465 -0.087203
H 2.317749 -2.763368 -0.051368
H 4.377614 -1.352067 0.043842
H 4.16083 1.138032 0.114155
H 1.920199 2.195015 0.083796
H -0.597361 1.626053 -0.962241
H -0.606102 1.713336 0.804616
H -3.550589 -1.414483 -0.415194
H -4.801592 -0.114588 -0.487073
H -4.146338 -0.649333 1.07799
