14

C -2.829738 -0.30157 0.02398
C -1.481971 0.384112 -0.047867
S -0.106762 -0.774754 -0.025903
C 1.305008 0.401957 -0.029193
O -1.331607 1.60256 -0.089355
C 2.62755 -0.359695 0.012221
H -2.815647 -1.289151 -0.459498
H -3.588604 0.340715 -0.443481
H -3.09998 -0.445208 1.083027
H 1.18351 1.061516 0.840679
H 1.214823 1.019066 -0.933212
H 3.465057 0.355233 0.011399
H 2.745843 -1.017713 -0.862035
H 2.712518 -0.97707 0.919237
