35

O 7.44896 1.912831 0.004763
C 7.351612 0.695579 0.012552
O 6.203072 -0.025064 0.006958
C 4.967814 0.771513 -0.014046
C 3.787817 -0.184066 -0.01024
C 2.446886 0.562287 -0.027759
C 1.229116 -0.370822 -0.016861
C -0.11092 0.374295 -0.026717
C -1.335056 -0.549869 -0.00745
C -2.672204 0.200822 -0.009786
C -3.900605 -0.717175 0.01615
C -5.236028 0.037005 0.018391
C -6.460327 -0.883772 0.047657
H 8.206986 -0.005681 0.025983
H 4.985601 1.408165 -0.910733
H 4.970507 1.433122 0.864489
H 3.847564 -0.829259 0.88183
H 3.858819 -0.85121 -0.885269
H 2.39934 1.212937 -0.918875
H 2.393016 1.239721 0.842942
H 1.278072 -1.024078 0.872501
H 1.278809 -1.046749 -0.889092
H -0.159401 1.025785 -0.917646
H -0.154829 1.054051 0.843131
H -1.285034 -1.203195 0.882122
H -1.295233 -1.227683 -0.878969
H -2.722557 0.852651 -0.900515
H -2.708251 0.881032 0.860134
H -3.850448 -1.36996 0.906405
H -3.868258 -1.396982 -0.854373
H -5.286732 0.688219 -0.871856
H -5.266996 0.716313 0.888218
H -6.481644 -1.55097 -0.829496
H -7.39865 -0.307571 0.049229
H -6.460816 -1.522219 0.94623
