21

C -2.151613 0.03714 0.010237
C -0.894895 0.467485 0.225239
C 0.346226 -0.345228 -0.176345
C 1.299218 0.527928 -1.027733
C -0.669914 1.804548 0.895809
C -0.01587 -1.598136 -0.993575
C 1.09358 -0.802222 1.100991
H -3.011537 0.637106 0.32224
H -2.381876 -0.908778 -0.482169
H 2.181447 -0.058123 -1.328187
H 1.661662 1.405604 -0.473535
H 0.802597 0.885367 -1.943075
H -1.621413 2.236547 1.234713
H -0.203182 2.529123 0.208862
H -0.006102 1.726805 1.771648
H 0.901017 -2.127783 -1.293999
H -0.569075 -1.339715 -1.909082
H -0.62824 -2.303675 -0.412021
H 2.004483 -1.359691 0.830862
H 0.459912 -1.462035 1.713062
H 1.403574 0.047734 1.726057
