18

C -1.611924 -0.829069 0.634509
C -0.873551 0.090282 -0.012276
C 0.588324 -0.121815 -0.383014
C -1.466643 1.42289 -0.403433
C 1.514836 0.775432 0.46834
H -2.656538 -0.635161 0.894044
H -1.213195 -1.802044 0.929101
H 0.694549 0.213461 -1.432082
H -2.528499 1.488646 -0.128146
H -1.38475 1.588158 -1.491857
H -0.940607 2.261856 0.081667
H 1.271093 1.842402 0.362722
H 2.565326 0.643746 0.165826
H 1.431755 0.514125 1.535087
C 1.055796 -1.581242 -0.317538
H 2.087735 -1.668427 -0.689989
H 0.418782 -2.238924 -0.92826
H 1.047514 -1.964314 0.715298
