12

C -1.529955 -1.407589 -0.027763
O -1.651038 0.041318 -0.035318
C -0.527359 0.799117 -0.008914
O 0.606831 0.036954 0.011374
C 1.833576 0.817827 0.032616
O -0.565857 2.018211 -0.005786
H -0.989417 -1.758818 -0.917296
H -2.56319 -1.773104 -0.043606
H -1.020278 -1.751758 0.882573
H 1.897435 1.447643 -0.86473
H 2.643051 0.079245 0.047598
H 1.866201 1.450954 0.929253
