30

C -0.157081 -0.092828 -0.007955
C 0.510356 -1.339869 0.027413
C 1.914262 -1.37151 0.044125
C 2.660695 -0.195426 0.030474
C 2.001391 1.03565 0.003085
C 0.601288 1.108662 -0.017219
C -2.235125 -0.036906 -1.502287
C -1.673046 -0.036567 -0.067932
C -0.514525 -3.134659 1.528408
C -0.2297 -2.664159 0.090147
C 0.790451 3.704411 -0.061303
C -0.10076 2.459261 -0.034533
H 2.42315 -2.340514 0.059784
H 3.753323 -0.233626 0.043874
H 2.591636 1.953744 -0.005965
H -1.859665 0.818309 -2.083527
H -3.335131 0.018863 -1.493928
H -1.946326 -0.949057 -2.045463
H -2.103827 -0.885175 0.482815
H -2.036309 0.86053 0.454695
H 0.420545 -3.24704 2.098038
H -1.031853 -4.107399 1.530411
H -1.144292 -2.413566 2.072085
H -1.174303 -2.613291 -0.47109
H 0.378181 -3.429386 -0.418143
H 0.167248 4.610948 -0.090184
H 1.443767 3.72569 -0.947163
H 1.430524 3.772283 0.831851
H -0.784305 2.499216 -0.899501
H -0.760569 2.523409 0.848986
