13

C -1.180754 -0.062557 0.664756
C -0.720409 0.267703 -0.756869
C 0.720409 -0.267703 -0.756869
C 1.180754 0.062557 0.664756
O 0.0 0.0 1.506876
H -1.608374 -1.080755 0.723987
H -1.9231 0.64804 1.060741
H -1.356537 -0.193842 -1.52619
H -0.723768 1.357074 -0.919862
H 1.356537 0.193842 -1.52619
H 0.723768 -1.357074 -0.919862
H 1.608374 1.080755 0.723987
H 1.9231 -0.64804 1.060741
