12

O -2.823681 -0.071245 -0.129009
C -1.646713 0.637083 0.016439
C -0.476923 -0.256136 -0.059357
C 0.77542 0.220915 0.068596
C 2.023946 -0.593856 0.00371
O -1.635968 1.854177 0.187007
H -3.534954 0.612749 -0.052005
H -0.668914 -1.318739 -0.231388
H 0.88454 1.298934 0.233043
H 2.671213 -0.244802 -0.819644
H 1.817854 -1.663455 -0.146242
H 2.614179 -0.475624 0.928851
