18

C -3.126242 -0.601102 -0.021349
C -1.946951 0.377491 0.02525
C -0.595986 -0.308904 0.001058
C 0.595986 0.308904 -0.001058
C 1.946951 -0.377491 -0.02525
C 3.126242 0.601102 0.021349
H -3.100599 -1.213879 -0.936761
H -4.089751 -0.068914 -0.002269
H -3.107762 -1.289486 0.838832
H -2.02838 1.002494 0.931788
H -2.021453 1.077941 -0.824803
H -0.615334 -1.407429 -0.015649
H 0.615334 1.407429 0.015649
H 2.02838 -1.002494 -0.931788
H 2.021453 -1.077941 0.824803
H 3.107762 1.289486 -0.838832
H 4.089751 0.068914 0.002269
H 3.100599 1.213879 0.936761
