15

C -2.218086 1.349497 0.026341
C -1.268382 0.203419 0.222132
C -0.096712 0.041346 -0.413002
C 0.859344 -1.101888 -0.21381
C 2.259713 -0.645316 0.230953
H -3.206625 0.99595 -0.316195
H -1.839554 2.070199 -0.714495
H -2.391662 1.890922 0.972813
H -1.576603 -0.559411 0.949905
H 0.215381 0.805552 -1.138819
H 0.957666 -1.663361 -1.161339
H 0.442342 -1.808441 0.522396
H 2.7127 0.030179 -0.512559
H 2.936867 -1.504909 0.357098
H 2.213611 -0.10374 1.18858
