11

C 0.598323 1.154839 -0.305239
C 0.50638 -0.352617 -0.21695
O 1.163614 1.694617 0.819791
O 0.228702 1.81869 -1.260759
C -0.885422 -0.812881 0.170467
O -1.039044 -2.150598 -0.098812
O -1.755992 -0.124485 0.676932
H 0.773942 -0.784011 -1.190802
H 1.209461 -0.750157 0.530265
H 1.156703 2.675019 0.665622
H -1.956666 -2.368415 0.209487
