12

C -1.864057 -0.377753 0.02866
O -0.730935 0.489486 -0.003305
C 0.503725 -0.243593 -0.013123
C 1.658035 0.742184 -0.022384
H -1.892313 -1.042659 -0.85671
H -2.7584 0.259687 0.025982
H -1.869901 -1.004596 0.941714
H 0.539029 -0.899578 -0.905952
H 0.55348 -0.900393 0.878418
H 1.622079 1.377325 -0.920086
H 2.61941 0.205123 -0.015894
H 1.619849 1.394766 0.86268
