20

C 8.135525 5.668319 -0.010996
C 6.843545 6.487566 0.064147
C 9.383861 6.549095 -0.06704
C 5.59785 5.604321 0.120381
C 10.680758 5.763513 -0.14193
C 4.308234 6.383306 0.194285
O 10.773289 4.549365 -0.155918
O 11.827758 6.53565 -0.195677
O 4.196045 7.602479 0.208351
O 3.218525 5.542913 0.246316
H 8.122904 5.011035 -0.894334
H 8.213603 4.995091 0.857192
H 6.76888 7.161136 -0.804684
H 6.859541 7.145453 0.9476
H 9.432816 7.210449 0.816899
H 9.342668 7.226205 -0.939438
H 5.627791 4.924226 0.988318
H 5.538281 4.938973 -0.757508
H 11.565234 7.485607 -0.173532
H 2.435954 6.150249 0.291622
