24

C -2.556732 -0.632598 0.13774
C -1.981369 -1.782509 -0.260921
C -0.545654 -2.065368 -0.503792
O 0.27675 -1.464715 0.400339
O -1.063336 1.109008 -0.477663
C -1.908722 0.658942 0.487882
O -2.17766 1.263087 1.523331
O -0.168275 -2.805922 -1.40982
C -0.412204 2.3901 -0.183021
C 0.316104 2.838875 -1.434075
C 1.708658 -1.712721 0.207091
C 2.42883 -1.291047 1.472351
H -3.640554 -0.617904 0.288438
H -2.623468 -2.639637 -0.482874
H 0.269474 2.235285 0.665726
H -1.183769 3.104935 0.134477
H -0.384202 2.988641 -2.26857
H 1.07237 2.102939 -1.744181
H 2.034143 -1.135129 -0.670692
H 1.84843 -2.777479 -0.022457
H 2.266843 -0.225889 1.693036
H 3.510712 -1.455991 1.351301
H 0.826098 3.794884 -1.239664
H 2.087534 -1.879788 2.336019
