17

C -2.263196 0.577981 0.0
C -1.59656 -0.633726 0.0
C -0.176508 -0.672379 0.0
C 0.549366 0.563414 0.0
C -0.161007 1.792544 0.0
C -1.543369 1.799918 0.0
C 1.970432 0.495645 0.0
N 2.674739 -0.630185 0.0
C 1.964838 -1.800943 0.0
C 0.585842 -1.870001 0.0
H -3.356268 0.597669 0.0
H -2.155102 -1.574082 0.0
H 0.400887 2.731202 0.0
H -2.087319 2.748232 0.0
H 2.544483 1.430773 0.0
H 2.566649 -2.715221 0.0
H 0.082092 -2.840843 0.0
