25

C 3.402639 -0.023604 0.05799
C 4.577895 -0.980228 0.037737
O 5.754277 -0.63557 0.015407
H 3.53677 0.677319 -0.784561
H 3.50741 0.598241 0.965451
H 4.315732 -2.070668 0.045669
C 2.030973 -0.703383 0.009051
C 0.861611 0.287933 0.026334
C -0.515582 -0.385087 -0.021704
C -1.68549 0.605886 -0.008837
C -3.064805 -0.063777 -0.05005
C -4.226277 0.934654 -0.041369
H 1.935533 -1.397676 0.862739
H 1.965264 -1.331131 -0.897171
H 0.96065 0.981878 -0.827597
H 0.930127 0.917136 0.931738
H -0.613327 -1.076709 0.83446
H -0.581657 -1.016351 -0.925978
H -1.589709 1.295135 -0.86735
H -1.617364 1.240947 0.892911
H -3.161729 -0.748247 0.811077
H -3.133146 -0.701159 -0.949058
H -5.200236 0.422059 -0.076508
H -4.177495 1.614283 -0.90784
H -4.212065 1.558122 0.867461
