12

Cl -2.962418 0.385091 0.421608
C -1.437334 -0.348746 -0.214494
C -0.183094 0.339859 0.291903
C 1.084852 -0.433171 -0.083721
O 2.268326 0.144303 0.463932
Cl -0.050153 2.033559 -0.394104
H -1.50094 -0.319756 -1.308725
H -1.43943 -1.395315 0.120237
H -0.223614 0.483999 1.37853
H 1.154266 -0.528467 -1.182887
H 1.013891 -1.444768 0.344787
H 2.275648 1.083412 0.162933
