12

C 0.401674 0.037482 -1.596423
C -0.778074 -0.068057 -0.673016
C -0.778074 -0.068057 0.673016
C 0.401674 0.037482 1.596423
H 1.354088 0.167763 -1.063973
H 0.284088 0.888699 -2.288984
H 0.489354 -0.864901 -2.226405
H -1.75113 -0.160986 -1.170562
H -1.75113 -0.160986 1.170562
H 0.284088 0.888699 2.288984
H 1.354088 0.167763 1.063973
H 0.489354 -0.864901 2.226405
