14

N -2.225676 -0.514303 -0.144421
C -1.051674 0.386547 -0.138649
C 0.24795 -0.419448 -0.06807
C 1.498197 0.458389 -0.115314
O 2.725447 -0.29957 -0.10289
H -3.079631 0.058677 -0.154903
H -2.257592 -1.014268 0.754924
H -1.06974 1.129583 0.6844
H -1.072438 0.960272 -1.079262
H 0.275202 -1.144142 -0.896038
H 0.258106 -1.008429 0.868403
H 1.491291 1.191053 0.713489
H 1.528704 1.03192 -1.053223
H 2.731853 -0.816281 0.731554
