21

C -1.48851 -0.151259 -0.262198
C -0.522879 -1.334927 -0.546593
C 0.915367 -0.745755 -0.505
C 0.751516 0.55468 0.30176
C -0.601552 1.115833 -0.168179
C -1.182448 2.233828 0.696856
C 1.97892 -1.70892 0.023602
H -2.01011 -0.304443 0.697297
H -2.271841 -0.046783 -1.027683
H -0.632273 -2.117072 0.221497
H -0.725686 -1.821476 -1.512975
H 1.193661 -0.459226 -1.535403
H 1.586588 1.258604 0.156062
H 0.704311 0.324838 1.382635
H -0.458028 1.509948 -1.190629
H -1.305025 1.902818 1.742225
H -2.171792 2.555336 0.332363
H -0.529397 3.121119 0.70291
H 2.974729 -1.237745 0.047964
H 2.055208 -2.610658 -0.605298
H 1.73924 -2.038744 1.048786
