27

C 0.167248 -0.504408 -4.958578
C -0.174958 0.34892 -3.732562
C 0.182172 -0.333524 -2.406607
C -0.170611 0.510901 -1.189602
O 0.179037 -0.208513 0.0
C -0.170611 0.510901 1.189602
C 0.182172 -0.333524 2.406607
C -0.174958 0.34892 3.732562
C 0.167248 -0.504408 4.958578
H 1.244386 -0.733793 -4.99819
H -0.0988 0.011044 -5.894404
H -0.373807 -1.464283 -4.941517
H -1.252147 0.590508 -3.743176
H 0.351717 1.316769 -3.801817
H 1.26075 -0.562277 -2.379842
H -0.341842 -1.300968 -2.328015
H -1.254271 0.746761 -1.181653
H 0.370646 1.478605 -1.218046
H -1.254271 0.746761 1.181653
H 0.370646 1.478605 1.218046
H 1.26075 -0.562277 2.379842
H -0.341842 -1.300968 2.328015
H -1.252147 0.590508 3.743176
H 0.351717 1.316769 3.801817
H -0.0988 0.011044 5.894404
H 1.244386 -0.733793 4.99819
H -0.373807 -1.464283 4.941517
