14

C 0.142803 1.526369 -0.008079
C 0.019326 0.131557 -0.049687
C 1.419884 2.108865 0.043267
C 1.158172 -0.67675 -0.044725
C 2.551005 1.298203 0.049653
C 2.435578 -0.095868 0.005322
Cl 0.955608 -2.404966 -0.102036
Cl 3.87765 -1.069357 0.012303
N -1.027637 2.28575 -0.019888
C -1.387932 3.449734 -0.003823
O -1.878129 4.534417 0.008825
H -0.969909 -0.32577 -0.083813
H 1.525196 3.195361 0.081569
H 3.546385 1.744455 0.087113
