15

C -1.759204 0.148857 -0.936307
C -0.609553 -0.655708 -0.328381
C 0.534167 0.127334 0.280056
C 1.621479 -0.716636 0.899261
C 0.602541 1.469979 0.278282
H -2.536987 -0.526044 -1.324738
H -1.417289 0.777991 -1.772367
H -2.231085 0.806377 -0.190018
H -0.186461 -1.330319 -1.096633
H -1.007113 -1.337425 0.44688
H 2.440987 -0.101483 1.297327
H 2.047762 -1.4188 0.161516
H 1.224271 -1.333466 1.724466
H 1.451184 1.99366 0.727568
H -0.174698 2.095682 -0.166911
