24

C -0.407092 0.432071 -1.318776
C 1.133788 0.512721 -1.266725
C 1.724251 -0.12395 0.0
C 1.133788 0.512721 1.266725
C -0.407092 0.432071 1.318776
C -1.014466 0.969589 0.0
C -0.907157 -0.962721 -1.73011
C -0.907157 -0.962721 1.73011
H -0.742796 1.121876 -2.113054
H 1.564738 0.046578 -2.168491
H 1.434816 1.57522 -1.294622
H 2.820136 -0.00692 0.0
H 1.539101 -1.211074 0.0
H 1.434816 1.57522 1.294622
H 1.564738 0.046578 2.168491
H -0.742796 1.121876 2.113054
H -0.8722 2.064689 0.0
H -2.105791 0.807744 0.0
H -0.569887 -1.757195 -1.050231
H -0.544586 -1.220228 -2.737924
H -2.007341 -0.998362 -1.755223
H -0.544586 -1.220228 2.737924
H -0.569887 -1.757195 1.050231
H -2.007341 -0.998362 1.755223
