16

O -2.129284 1.026586 0.325284
O -0.957885 0.501413 1.08164
C 0.065414 0.034882 0.136033
C 1.176128 -0.401425 1.098854
C 0.524394 1.186228 -0.761423
C -0.461626 -1.149157 -0.679319
H -2.742021 0.259634 0.431739
H 1.513858 0.444299 1.714334
H 2.034284 -0.77679 0.522362
H 0.829403 -1.202835 1.766959
H 1.338863 0.856434 -1.424558
H 0.888314 2.028077 -0.154939
H -0.304303 1.542969 -1.387502
H 0.328308 -1.55673 -1.327941
H -1.294861 -0.838022 -1.325631
H -0.808985 -1.955561 -0.015892
