14

S 0.0 -2.466238 0.0
P -1.233469 -1.233469 -1.233469
S -2.466238 0.0 0.0
P -1.233469 1.233469 1.233469
S 0.0 0.0 2.466238
P 1.233469 -1.233469 1.233469
S 2.466238 0.0 0.0
P 1.233469 1.233469 -1.233469
S 0.0 0.0 -2.466238
S 0.0 2.466238 0.0
S 2.354357 -2.354357 2.354357
S -2.354357 2.354357 2.354357
S -2.354357 -2.354357 -2.354357
S 2.354357 2.354357 -2.354357
