11

C -1.256377 -0.273183 -0.095774
C 0.051456 0.565936 -0.101404
C 1.30693 -0.215302 0.194408
F -1.167091 -1.294617 -1.000983
F -2.338329 0.483508 -0.41169
F -1.4604 -0.821959 1.139469
F -0.122202 1.58159 0.830267
F 0.134656 1.166583 -1.351263
H 2.158212 0.47817 0.168063
H 1.451254 -0.997998 -0.561624
H 1.241891 -0.672729 1.190532
