19

C -2.12342 -0.118207 0.003466
C -1.454058 -1.347325 -0.009056
C -0.052782 -1.396651 -0.014021
C 0.660363 -0.185121 -0.011675
C 0.003247 1.050161 0.001287
C -1.400105 1.075789 0.008939
C 0.761187 2.358218 0.000288
O 2.180473 2.12519 0.007254
C 0.678325 -2.717664 -0.000707
H -3.216467 -0.092747 0.004482
H -2.029038 -2.278329 -0.016376
H 1.752247 -0.200801 -0.020597
H -1.92913 2.034386 0.015239
H 0.464709 2.950014 0.887174
H 0.472968 2.944537 -0.892978
H 2.611722 3.006134 0.005466
H 1.656955 -2.642893 -0.498168
H 0.098618 -3.506845 -0.502755
H 0.864188 -3.057845 1.032738
