52

C -0.333038 2.154447 -0.368682
C -0.342626 0.667293 0.038603
C 1.122985 2.649523 -0.504932
C -1.139744 2.438284 -1.653399
N -1.605879 0.24834 0.660285
C 1.294109 4.171168 -0.567252
C -2.660483 2.284502 -1.55484
C -1.609933 -1.161012 1.074493
C 2.759458 4.619232 -0.626016
C -2.936385 -1.5525 1.744029
C 2.925535 6.139619 -0.664675
C -4.105924 -1.462277 0.743978
C -2.845244 -2.941626 2.407586
C -5.491178 -1.321233 1.384212
C -2.000416 -3.001154 3.684773
C -6.627611 -1.213892 0.361437
C -8.006662 -1.025431 0.99818
H -0.796342 2.725863 0.459923
H -0.183504 0.040801 -0.856233
H 0.525871 0.468832 0.705227
H 1.708133 2.269504 0.350721
H 1.580137 2.192005 -1.401803
H -0.918494 3.465867 -1.983672
H -0.752273 1.781385 -2.452981
H -1.756874 0.829248 1.496563
H 0.762657 4.582257 -1.441464
H 0.812836 4.62691 0.317324
H -3.078929 2.970845 -0.801312
H -3.136372 2.522842 -2.519278
H -2.94759 1.266091 -1.263262
H -1.461933 -1.776242 0.16942
H -0.759339 -1.397773 1.74846
H 3.299531 4.209126 0.245147
H 3.240738 4.171307 -1.513198
H -3.124574 -0.812162 2.546877
H 2.428739 6.575427 -1.546303
H 2.482016 6.612523 0.226288
H 3.98592 6.432828 -0.702346
H -3.929837 -0.594809 0.088009
H -4.087034 -2.352974 0.089318
H -3.864741 -3.285969 2.64467
H -2.452999 -3.663011 1.667996
H -5.694066 -2.170087 2.060568
H -5.49871 -0.4212 2.025592
H -2.000126 -4.015189 4.112986
H -0.951359 -2.723377 3.503976
H -2.395834 -2.318001 4.453467
H -6.419707 -0.371696 -0.321274
H -6.633001 -2.117248 -0.273271
H -8.265477 -1.871426 1.655109
H -8.041652 -0.111301 1.612114
H -8.796777 -0.942478 0.235865
