23

C 3.649942 0.0 -0.572278
C 2.487558 0.0 -1.309522
C 1.215613 0.0 -0.659889
C 1.160363 0.0 0.788056
C 2.39089 0.0 1.514534
C 3.598268 0.0 0.852253
N 0.0 0.0 1.483042
C -1.160363 0.0 0.788056
C -1.215613 0.0 -0.659889
C 0.0 0.0 -1.3561
C -2.487558 0.0 -1.309522
C -3.649942 0.0 -0.572278
C -3.598268 0.0 0.852253
C -2.39089 0.0 1.514534
H 4.620285 0.0 -1.075561
H 2.519441 0.0 -2.403039
H 2.33441 0.0 2.605569
H 4.531553 0.0 1.42193
H 0.0 0.0 -2.451049
H -2.519441 0.0 -2.403039
H -4.620285 0.0 -1.075561
H -4.531553 0.0 1.42193
H -2.33441 0.0 2.605569
