17

O -2.002099 1.811196 -0.807336
C -0.924053 1.549257 0.011359
C -0.344629 0.171119 -0.248375
C 1.144712 0.122504 0.138833
C 1.855973 -1.16047 -0.303488
C -1.204026 -0.873057 0.497096
O -0.53594 2.35606 0.847322
H -2.320047 2.705174 -0.524337
H -0.446912 -0.021826 -1.328941
H 1.234232 0.253664 1.228696
H 1.65147 0.99264 -0.308323
H 2.919528 -1.131385 -0.022329
H 1.806407 -1.293421 -1.396752
H 1.422715 -2.059019 0.161919
H -0.856814 -1.890606 0.268677
H -2.25998 -0.805946 0.199824
H -1.140538 -0.725884 1.586157
