44

C -8.376379 0.360564 -0.055642
C -7.015875 1.063367 -0.094117
C -5.824446 0.099238 -0.030509
C -4.461922 0.800925 -0.066565
C -3.264241 -0.155356 -0.005068
C -1.908811 0.560429 -0.039633
C -0.699929 -0.381766 0.017159
C 0.64616 0.351713 -0.017101
C 1.867145 -0.574931 0.034208
C 3.203646 0.176336 0.005033
C 4.433868 -0.738328 0.051574
C 5.759461 0.031668 0.024067
C 6.983642 -0.885854 0.062821
C 8.310469 -0.146636 0.023803
O 9.428672 -0.946049 0.184308
O 8.451222 1.051898 -0.139632
H -8.494152 -0.33405 -0.903368
H -9.205441 1.083963 -0.101682
H -8.498951 -0.225506 0.869937
H -6.948771 1.778248 0.744849
H -6.941994 1.67166 -1.012505
H -5.890487 -0.616723 -0.869819
H -5.898268 -0.510112 0.888307
H -4.399429 1.51558 0.773968
H -4.391467 1.412806 -0.983782
H -3.322805 -0.869167 -0.846489
H -3.331529 -0.767534 0.91212
H -1.853749 1.272824 0.803216
H -1.84599 1.176374 -0.954601
H -0.750644 -1.09316 -0.82679
H -0.758104 -0.998054 0.932202
H 0.693386 1.061766 0.828043
H 0.699496 0.971523 -0.929952
H 1.826051 -1.281345 -0.814358
H 1.816683 -1.197701 0.945353
H 3.243024 0.881056 0.854597
H 3.251294 0.801802 -0.903923
H 4.397959 -1.441787 -0.799926
H 4.388618 -1.364912 0.960641
H 5.808088 0.728438 0.875964
H 5.815466 0.661215 -0.877475
H 6.966709 -1.584543 -0.793799
H 6.962835 -1.524736 0.964238
H 9.129492 -1.875145 0.310329
