28

C -0.856873 0.146597 -3.805259
C -0.059712 -0.353357 -2.591257
C -0.62418 0.238628 -1.291154
C -0.195277 -0.449639 0.0
C -0.62418 0.238628 1.291154
C -0.059712 -0.353357 2.591257
C -0.856873 0.146597 3.805259
O 0.414789 -1.520905 0.0
C 1.436684 -0.047509 -2.748144
C 1.436684 -0.047509 2.748144
H -0.80027 1.244406 -3.898977
H -1.921637 -0.128126 -3.733344
H -0.464388 -0.284601 -4.73964
H -0.173382 -1.447715 -2.525623
H -1.730033 0.20505 -1.30544
H -0.383877 1.31473 -1.214454
H -1.730033 0.20505 1.30544
H -0.383877 1.31473 1.214454
H -0.173382 -1.447715 2.525623
H -0.464388 -0.284601 4.73964
H -1.921637 -0.128126 3.733344
H -0.80027 1.244406 3.898977
H 1.838239 -0.508556 -3.664008
H 2.016801 -0.433803 -1.898183
H 1.612872 1.039527 -2.821179
H 2.016801 -0.433803 1.898183
H 1.838239 -0.508556 3.664008
H 1.612872 1.039527 2.821179
