28

C -0.931107 0.839735 0.34055
C -0.267946 -0.345122 -0.026331
C 1.113134 -0.243487 -0.272145
C 1.795697 0.968758 -0.15924
C 1.130016 2.152102 0.207908
C -0.253623 2.053394 0.45344
C 1.794978 3.453675 0.34317
C 3.107393 3.726544 0.207927
H -2.004582 0.823201 0.543448
C -1.044781 -1.665805 -0.140861
H 1.68115 -1.127601 -0.565017
H 2.868447 0.989441 -0.367162
H -0.807922 2.95219 0.740334
H 1.121861 4.285045 0.584249
H 3.486323 4.743383 0.331234
H 3.850037 2.95941 -0.026596
C -2.18098 -1.507154 -1.179481
C -0.149133 -2.838005 -0.583219
C -1.658021 -2.017459 1.23544
H -2.894314 -0.721991 -0.888402
H -2.744909 -2.448575 -1.278872
H -1.778597 -1.243793 -2.169539
H 0.301887 -2.663045 -1.571988
H -0.750291 -3.757217 -0.653485
H 0.662346 -3.031469 0.134986
H -2.216808 -2.965448 1.176636
H -2.35532 -1.240589 1.582386
H -0.874938 -2.130119 2.000629
