18

C -3.558317 -0.623527 0.0
S -2.3128 0.711558 0.0
C -0.778218 -0.299182 0.0
C 0.457081 0.604109 0.0
C 1.770629 -0.192117 0.0
C 3.015605 0.701279 0.0
H -3.471229 -1.247073 -0.902193
H -4.543243 -0.137201 0.0
H -3.471229 -1.247073 0.902193
H -0.784918 -0.947893 -0.890784
H -0.784918 -0.947893 0.890784
H 0.42519 1.265073 0.882401
H 0.42519 1.265073 -0.882401
H 1.794668 -0.856135 -0.881023
H 1.794668 -0.856135 0.881023
H 3.041609 1.352962 -0.88833
H 3.93862 0.101212 0.0
H 3.041609 1.352962 0.88833
