60

C -12.213721 0.66929 -0.777378
C -11.269864 0.877071 0.151756
C -10.015821 0.068135 0.323124
H -13.102066 1.303708 -0.847202
H -12.135298 -0.148513 -1.502497
H -11.398161 1.713271 0.851293
H -10.016717 -0.773293 -0.389779
H -10.011564 -0.380764 1.334043
C -8.727046 0.894675 0.150776
C -7.449882 0.06673 0.335187
H -8.730858 1.73088 0.872125
H -8.729601 1.357597 -0.850683
H -7.451118 -0.768798 -0.387514
H -7.460685 -0.402219 1.3355
C -6.156351 0.873846 0.169232
H -6.144162 1.699908 0.902728
H -6.150616 1.354203 -0.825468
C -4.887255 0.028599 0.332953
H -4.905794 -0.79861 -0.399327
H -4.89744 -0.45253 1.327428
C -3.580352 0.814251 0.168019
H -3.543701 1.626917 0.915811
H -3.574162 1.311522 -0.818479
C -2.329359 -0.063086 0.303081
H -2.375786 -0.874962 -0.445317
H -2.342663 -0.564013 1.287797
C -1.003102 0.69029 0.141327
H -0.933696 1.483184 0.907711
H -0.993505 1.210206 -0.833543
C 0.223108 -0.226462 0.239539
H 0.14596 -1.014876 -0.530938
H 0.20348 -0.754318 1.210111
C 1.568895 0.493667 0.087506
H 1.66752 1.258903 0.878317
H 1.583449 1.045598 -0.869585
C 2.771486 -0.457281 0.142141
H 2.668073 -1.213806 -0.656683
H 2.746738 -1.021116 1.092039
C 4.132821 0.235958 0.003227
H 4.259868 0.963302 0.825175
H 4.148188 0.82918 -0.928695
C 5.314385 -0.742367 -0.000836
H 5.18326 -1.462279 -0.828874
H 5.292587 -1.344725 0.925076
C 6.686009 -0.068328 -0.133107
H 6.834918 0.627604 0.711957
H 6.699148 0.557809 -1.043373
C 7.853738 -1.06164 -0.186495
H 7.702931 -1.752305 -1.035711
H 7.836727 -1.693904 0.719521
C 9.230532 -0.397709 -0.314331
H 9.393981 0.273735 0.547887
H 9.241261 0.253741 -1.206919
C 10.392325 -1.395552 -0.404827
H 10.231966 -2.059818 -1.272037
H 10.378523 -2.052033 0.482886
C 11.765489 -0.725369 -0.523217
H 11.820177 -0.07931 -1.414893
H 12.573347 -1.469919 -0.602309
H 11.979456 -0.093872 0.354741
