33

C -0.180911 0.00033 -6.289174
C 0.593749 -0.117791 -4.972764
C -0.287423 0.056111 -3.729224
C 0.484509 -0.06768 -2.409664
C -0.408208 0.102656 -1.18847
O 0.38208 -0.035258 0.0
C -0.408208 0.102656 1.18847
C 0.484509 -0.06768 2.409664
C -0.287423 0.056111 3.729224
C 0.593749 -0.117791 4.972764
C -0.180911 0.00033 6.289174
H -0.974071 -0.762315 -6.356979
H 0.481275 -0.132008 -7.159019
H -0.663169 0.987037 -6.384974
H 1.403287 0.63252 -4.953406
H 1.09406 -1.10078 -4.928257
H -1.09806 -0.694346 -3.75285
H -0.787543 1.04023 -3.774028
H 1.288861 0.685803 -2.369495
H 0.977548 -1.052479 -2.352347
H -1.216651 -0.656988 -1.19078
H -0.898292 1.097329 -1.200755
H -1.216651 -0.656988 1.19078
H -0.898292 1.097329 1.200755
H 1.288861 0.685803 2.369495
H 0.977548 -1.052479 2.352347
H -1.09806 -0.694346 3.75285
H -0.787543 1.04023 3.774028
H 1.403287 0.63252 4.953406
H 1.09406 -1.10078 4.928257
H 0.481275 -0.132008 7.159019
H -0.974071 -0.762315 6.356979
H -0.663169 0.987037 6.384974
