30

C -5.411464 -0.006133 0.007073
C -4.656009 -1.303972 0.003615
C -3.31942 -1.454952 0.014923
C -2.283101 -0.352668 0.030117
C -0.839641 -0.873517 -0.024014
C 0.213217 0.240123 -0.010274
C 1.658169 -0.273796 -0.028381
C 2.710203 0.84181 -0.00931
C 4.15648 0.331061 -0.013049
C 5.200094 1.452324 0.024218
H -6.081337 0.06464 -0.867641
H -4.747316 0.869939 -0.004698
H -6.05793 0.072828 0.898784
H -5.270556 -2.212031 -0.006656
H -2.927792 -2.479459 0.012514
H -2.408006 0.267124 0.936999
H -2.450827 0.333462 -0.819431
H -0.710602 -1.4893 -0.931817
H -0.667773 -1.552939 0.829353
H 0.061634 0.873389 0.882402
H 0.051818 0.903181 -0.879068
H 1.81084 -0.901936 -0.924449
H 1.818751 -0.941076 0.837224
H 2.550648 1.478316 0.879772
H 2.556766 1.502117 -0.881846
H 4.319561 -0.292632 -0.909464
H 4.307318 -0.339412 0.85103
H 5.075396 2.143747 -0.825314
H 6.225124 1.052042 -0.020581
H 5.115754 2.047722 0.947967
