24

C -4.116742 -0.216523 -0.360835
C -2.895528 0.613092 -0.007079
O -1.719248 -0.196751 -0.176582
C -0.523966 0.520889 0.139562
C 0.662568 -0.414101 -0.079927
O 1.848672 0.42251 0.159309
C 2.964689 0.118253 -0.577196
C 4.126932 0.989684 -0.169193
O 3.01361 -0.75923 -1.431231
C 0.680116 -1.618305 0.848464
H -4.069172 -0.559113 -1.405109
H -5.031204 0.383829 -0.23462
H -4.190996 -1.100316 0.290493
H -2.950619 0.968478 1.040568
H -2.825773 1.507463 -0.656934
H -0.546806 0.870241 1.190867
H -0.419183 1.409483 -0.511749
H 0.686317 -0.740235 -1.127685
H 3.798633 1.995572 0.126714
H 4.848509 1.042702 -0.993794
H 4.62635 0.529715 0.699126
H 1.551353 -2.254896 0.6411
H -0.231602 -2.212956 0.693626
H 0.713092 -1.299487 1.902107
