24

C -2.273004 -0.973047 0.003409
C -1.545856 -2.197965 0.013949
C -0.165477 -2.21258 0.012615
C 0.579348 -1.002111 0.00212
C -0.137378 0.241242 -0.007791
C -1.559565 0.214401 -0.007323
C 0.598384 1.456704 -0.021685
C 1.985176 1.477849 -0.024503
C 2.67906 0.236245 -0.015334
C 1.998379 -0.966467 -0.003093
C -3.780804 -0.993018 0.004194
H -2.097588 -3.143267 0.023069
H 0.374044 -3.164696 0.020166
H -2.096034 1.169201 -0.015469
H 0.041554 2.399801 -0.032951
C 2.751398 2.777711 0.002985
H 3.773289 0.239606 -0.020059
H 2.551355 -1.910782 -0.00183
H -4.174079 -1.513703 0.893501
H -4.174742 -1.526755 -0.877024
H -4.19935 0.023747 -0.002922
H 2.184064 3.593419 -0.469364
H 3.717822 2.688357 -0.516947
H 2.970002 3.086107 1.04029
