16

C -2.456708 1.632746 -0.052156
C -0.955272 1.512795 -0.011243
C -0.263488 0.350493 -0.00486
C 1.183814 0.269482 0.041766
C 1.945381 -0.85137 0.046373
C 1.481475 -2.276736 0.010714
H -2.927178 1.164601 0.829701
H -2.884375 1.14044 -0.941902
H -2.775572 2.684811 -0.072707
H -0.382462 2.447474 0.018623
H -0.824815 -0.590773 -0.030884
H 1.705378 1.233568 0.075739
H 3.032124 -0.713302 0.086169
H 1.907766 -2.806571 -0.859084
H 0.388287 -2.372984 -0.041559
H 1.825644 -2.824674 0.90531
