16

C -2.203931 -0.16318 -0.065216
C -1.50255 -1.361833 -0.235805
C -0.104892 -1.348134 -0.208818
C 0.618566 -0.162039 -0.015183
C -0.111148 1.031126 0.153217
C -1.510437 1.032851 0.128976
O 0.516738 2.250384 0.350999
C 2.126737 -0.149725 0.016727
H -3.296955 -0.15567 -0.084624
H -2.037924 -2.302384 -0.386431
H 0.448846 -2.282456 -0.344546
H -2.037751 1.979956 0.2672
H 1.484997 2.093252 0.345589
H 2.531456 -1.15724 -0.153886
H 2.519328 0.189619 0.993302
H 2.558921 0.505473 -0.761501
