15

C 0.028315 1.38252 0.163969
C 0.062102 -0.0302 0.018383
N 1.266781 2.005614 0.268401
C -1.211947 2.039076 0.193444
S 1.729883 -0.572503 0.015555
C -1.108813 -0.785689 -0.096396
C 2.227283 1.123003 0.207453
C -2.37999 1.287491 0.079031
C -2.330764 -0.110696 -0.064788
S 3.948991 1.477312 0.298113
H -1.240941 3.125483 0.306431
H -1.072641 -1.872113 -0.208383
H -3.350525 1.790448 0.100466
H -3.25906 -0.680939 -0.153294
H 3.741326 2.818193 0.424616
