29

C -2.924487 -1.258857 0.527937
C -1.860378 -0.147351 0.536641
C -0.574545 -0.682994 -0.134326
C 0.76909 0.105695 -0.07113
C 1.874937 -0.924569 -0.450305
C 3.324677 -0.427955 -0.50642
C -2.442137 1.130591 -0.087905
C 1.021965 0.646164 1.348686
C 0.793273 1.269129 -1.082233
H -2.558608 -2.173816 1.019787
H -3.20866 -1.52819 -0.503474
H -3.839826 -0.939945 1.050774
H -1.630024 0.070522 1.593643
H -0.798287 -0.893591 -1.196292
H -0.382792 -1.670203 0.321628
H 1.611864 -1.359211 -1.430626
H 1.819057 -1.759463 0.269448
H 3.469954 0.360626 -1.259695
H 3.997793 -1.25664 -0.775352
H 3.667913 -0.034531 0.462348
H -3.418433 1.370192 0.362548
H -2.598675 1.01185 -1.172715
H -1.795286 2.005816 0.061955
H 0.254929 1.375864 1.648309
H 1.993565 1.158262 1.414172
H 1.021233 -0.165791 2.094123
H 0.583013 0.913198 -2.103447
H 1.776319 1.762823 -1.097081
H 0.052558 2.042377 -0.840998
