34

C -7.553263 -0.436411 0.09059
C -6.361357 0.476173 -0.056305
O -5.188311 -0.226081 0.064719
C -3.981522 0.571134 -0.115485
C -2.80565 -0.367943 0.092892
O -1.613863 0.402394 -0.083137
C -0.43317 -0.385445 0.119973
C 0.771784 0.515243 -0.103843
O 1.946609 -0.274149 0.098824
C 3.146833 0.48688 -0.110819
C 4.354161 -0.414387 0.100943
C 5.686497 0.315719 -0.110858
C 6.905855 -0.587324 0.096444
O -6.409753 1.679471 -0.280133
H -7.381532 -1.205684 0.856337
H -7.728171 -0.954166 -0.866467
H -8.440892 0.160515 0.332389
H -3.971892 1.395583 0.610088
H -3.974703 1.003361 -1.125728
H -2.843706 -1.198873 -0.637277
H -2.84051 -0.809189 1.107201
H -0.406378 -1.23535 -0.587322
H -0.413242 -0.798243 1.1462
H 0.743099 1.367352 0.601791
H 0.748328 0.928857 -1.130367
H 3.171595 1.344493 0.590948
H 3.147629 0.906332 -1.137124
H 4.281248 -1.273065 -0.587761
H 4.311655 -0.831575 1.121194
H 5.746288 1.177074 0.577325
H 5.713856 0.74254 -1.128716
H 7.846048 -0.03597 -0.060378
H 6.897944 -1.438067 -0.603891
H 6.928487 -1.001196 1.11775
