31

C 0.108161 1.087826 -5.974332
C 0.006497 -0.065574 -4.970999
C 0.011935 0.416428 -3.512831
C -0.082073 -0.738062 -2.53007
O -0.066313 -0.15514 -1.173639
S -0.099354 -1.283059 0.0
O -0.066313 -0.15514 1.173639
C -0.082073 -0.738062 2.53007
C 0.011935 0.416428 3.512831
C 0.006497 -0.065574 4.970999
C 0.108161 1.087826 5.974332
O -1.384851 -1.990049 0.0
O 1.144308 -2.061653 0.0
H 0.10079 0.717652 -7.011018
H 1.038142 1.661382 -5.831102
H -0.734395 1.789514 -5.864675
H 0.84409 -0.765813 -5.130003
H -0.914021 -0.642887 -5.164457
H -0.832267 1.103505 -3.340962
H 0.932505 0.987076 -3.307982
H 0.77378 -1.423295 -2.621487
H -1.016882 -1.30523 -2.65031
H 0.77378 -1.423295 2.621487
H -1.016882 -1.30523 2.65031
H -0.832267 1.103505 3.340962
H 0.932505 0.987076 3.307982
H 0.84409 -0.765813 5.130003
H -0.914021 -0.642887 5.164457
H 1.038142 1.661382 5.831102
H 0.10079 0.717652 7.011018
H -0.734395 1.789514 5.864675
