14

Cl -3.431696 -0.37798 0.0
C -1.862888 0.543411 0.0
C -0.661912 -0.39313 0.0
C 0.661912 0.39313 0.0
C 1.862888 -0.543411 0.0
Cl 3.431696 0.37798 0.0
H -1.887964 1.181807 0.8926
H -1.887964 1.181807 -0.8926
H -0.716101 -1.048375 -0.88418
H -0.716101 -1.048375 0.88418
H 0.716101 1.048375 0.88418
H 0.716101 1.048375 -0.88418
H 1.887964 -1.181807 -0.8926
H 1.887964 -1.181807 0.8926
