18

C -2.548524 0.403338 0.306063
O -1.326082 0.792156 -0.324059
C -0.173376 0.031104 0.112181
C -0.184837 -1.385785 -0.463994
C 1.050324 0.85155 -0.30576
C 2.388981 0.310155 0.20784
H -2.882102 -0.603562 -0.004012
H -3.306966 1.133945 -0.004505
H -2.45711 0.426954 1.408885
H -0.200381 -0.028445 1.219283
H 0.700143 -1.951578 -0.137555
H -0.18953 -1.350911 -1.564365
H -1.067744 -1.95185 -0.134089
H 0.898916 1.877104 0.065661
H 1.065817 0.92061 -1.406259
H 3.213246 0.977707 -0.084838
H 2.618831 -0.686722 -0.197839
H 2.400394 0.234229 1.307363
