34

C -6.211956 0.112877 0.006332
C -4.871082 0.851677 -0.045269
C -3.654679 -0.080386 0.025023
C -2.308836 0.652661 -0.028465
C -1.09217 -0.278817 0.041541
C 0.252695 0.455827 -0.021296
C 1.470218 -0.47487 0.044775
C 2.814658 0.260231 -0.028379
C 4.033476 -0.669822 0.033524
C 5.377056 0.06996 -0.049371
N 6.595042 -0.764423 0.000463
H -6.313168 -0.594928 -0.832834
H -7.061123 0.812263 -0.045688
H -6.315468 -0.465748 0.938909
H -4.820531 1.577494 0.78536
H -4.816383 1.451518 -0.970418
H -3.706505 -0.809519 -0.803829
H -3.708886 -0.678826 0.952188
H -2.258133 1.381007 0.800942
H -2.256329 1.251847 -0.955063
H -1.145427 -1.011479 -0.783887
H -1.140838 -0.872858 0.971595
H 0.307451 1.186978 0.805333
H 0.299484 1.051844 -0.95017
H 1.412709 -1.209681 -0.778396
H 1.427482 -1.06632 0.976681
H 2.873563 0.994459 0.795179
H 2.854905 0.852495 -0.959904
H 3.978569 -1.405738 -0.789583
H 4.002903 -1.258372 0.968406
H 5.445896 0.805198 0.769855
H 5.417308 0.657885 -0.981296
H 6.545052 -1.460372 -0.756415
H 6.573048 -1.324059 0.86416
