11

C -1.359191 -0.908225 0.006546
C -0.402787 0.265852 -0.029394
O 0.966286 -0.264383 0.062405
C 1.947575 0.672193 0.028736
O 1.799141 1.880695 -0.064695
H -1.172774 -1.599496 -0.828484
H -2.393696 -0.540511 -0.077386
H -1.269518 -1.46796 0.949168
H -0.557185 0.957084 0.81135
H -0.483467 0.845061 -0.960023
H 2.925617 0.159691 0.101777
