24

O -4.445949 -0.820453 -0.012311
C -3.288346 0.010128 -0.24966
C -1.96557 -0.695509 0.04311
C -0.738982 0.173822 -0.267078
C 0.590651 -0.524297 0.048057
C 1.859532 0.266611 -0.326975
C 3.110757 -0.605468 -0.147645
C 1.995418 1.577803 0.461869
H -4.409129 -1.092021 0.930261
H -3.363299 0.94592 0.336046
H -3.349432 0.287644 -1.312184
H -1.927565 -1.630106 -0.540701
H -1.94564 -0.993868 1.107831
H -0.812295 1.116848 0.299898
H -0.75553 0.45972 -1.334036
H 0.614288 -1.493523 -0.480587
H 0.626185 -0.771662 1.125207
H 1.782338 0.527139 -1.398822
H 4.021427 -0.070492 -0.459696
H 3.046277 -1.531024 -0.74121
H 3.243704 -0.895172 0.908443
H 1.151168 2.260024 0.2837
H 2.914532 2.114549 0.179862
H 2.045461 1.383388 1.546623
