21

C -2.207782 -2.585357 0.037666
C -0.907483 -1.895422 -0.387634
C -0.74543 -0.49357 0.214158
C 0.552415 0.200081 -0.215298
C 0.691125 1.613153 0.385672
C 2.028313 2.240057 0.0385
O 3.092681 1.585837 0.584181
O 2.142071 3.238727 -0.667815
O -0.354949 2.477563 -0.060113
H -2.263418 -2.696138 1.132884
H -2.293361 -3.59093 -0.402701
H -3.089562 -2.006141 -0.280089
H -0.872189 -1.824527 -1.488574
H -0.046029 -2.521955 -0.096928
H -0.7741 -0.562441 1.316443
H -1.601896 0.13502 -0.077141
H 0.586349 0.290377 -1.313883
H 1.423071 -0.403312 0.088944
H 0.636992 1.532425 1.486779
H 3.893513 2.082114 0.279474
H 0.109669 3.184439 -0.574524
