15

C -2.175047 -0.360943 -0.073076
C -0.912219 0.507631 -0.085424
C 0.383934 -0.31725 -0.056005
C 1.640208 0.554119 -0.066922
S 3.22819 -0.382414 -0.109423
H -2.212506 -1.025553 -0.951351
H -3.086494 0.256669 -0.083319
H -2.214389 -0.998016 0.82542
H -0.929497 1.194644 0.77826
H -0.916006 1.149759 -0.983351
H 0.414019 -1.003571 -0.917945
H 0.39224 -0.956342 0.843855
H 1.661425 1.24584 0.78808
H 1.678079 1.17198 -0.977571
H 3.048065 -1.036552 1.068772
