16

C -0.737705 -0.371252 0.058162
C -0.071594 -1.5957 0.007683
C 1.320378 -1.625996 -0.108807
C 2.044206 -0.430947 -0.171522
C 1.377352 0.795968 -0.11535
C -0.011615 0.825272 0.005856
N -0.649219 2.144315 0.174732
N -2.211349 -0.396247 0.063952
O -2.792023 0.426058 -0.668434
O -2.755611 -1.272958 0.763088
H -0.662837 -2.511989 0.042572
H 1.835906 -2.587837 -0.15571
H 3.132745 -0.449424 -0.259841
H 1.920093 1.742244 -0.148052
O -0.282948 3.045801 -0.602909
O -1.455779 2.262692 1.11458
