48

C -7.012383 -0.43605 -0.258731
C -5.903177 -1.493755 -0.172792
C -4.530903 -0.916331 -0.552649
C -4.162571 0.322281 0.286838
C -5.286838 1.371695 0.191876
C -6.660166 0.803043 0.576865
C -2.801884 0.932048 -0.095533
C -1.58152 0.038484 0.16333
C -0.245298 0.72436 -0.150192
C 0.977537 -0.159186 0.127393
C 2.318902 0.521739 -0.172498
C 3.535794 -0.366334 0.116808
C 4.882266 0.310639 -0.169193
C 6.094217 -0.58181 0.126418
C 7.445124 0.093279 -0.143958
C 8.647105 -0.808511 0.156377
H -7.974713 -0.861423 0.070993
H -7.149185 -0.137199 -1.314112
H -5.856044 -1.886024 0.859603
H -6.142497 -2.355203 -0.818583
H -4.537558 -0.629642 -1.621155
H -3.7599 -1.695687 -0.446432
H -4.10019 0.000168 1.345054
H -5.329379 1.754538 -0.845162
H -5.041784 2.238561 0.829179
H -7.43741 1.576995 0.464293
H -6.651155 0.526302 1.646914
H -2.672341 1.874091 0.467736
H -2.823242 1.223572 -1.1619
H -1.656189 -0.886382 -0.432914
H -1.584257 -0.282061 1.221009
H -0.165335 1.655095 0.439884
H -0.235889 1.038826 -1.20945
H 0.898808 -1.086386 -0.468362
H 0.96213 -0.480034 1.18474
H 2.396533 1.45143 0.419468
H 2.33969 0.837142 -1.231305
H 3.459977 -1.292829 -0.48037
H 3.508905 -0.687812 1.173692
H 4.958023 1.237763 0.427085
H 4.912499 0.630132 -1.226584
H 6.022716 -1.505639 -0.475721
H 6.058387 -0.908484 1.181647
H 7.517244 1.014902 0.459771
H 7.483536 0.419827 -1.198129
H 9.599943 -0.29156 -0.0378
H 8.629998 -1.7192 -0.464597
H 8.652473 -1.129371 1.211151
