19

C -1.759837 0.009703 0.005478
C -1.102829 -1.225278 -0.003735
C 0.296825 -1.276463 -0.021961
C 1.021775 -0.073442 -0.032763
C 0.375627 1.170974 -0.021295
C -1.026422 1.201159 -0.00404
O -3.144685 -0.004145 0.012958
C 1.169204 2.45544 0.003457
C 1.011314 -2.606785 0.001164
H -1.697889 -2.142402 -0.003006
H 2.115507 -0.1077 -0.053041
H -1.552205 2.162992 -0.004914
H -3.451891 0.928361 0.021094
H 0.637195 3.273016 -0.506469
H 2.149254 2.330893 -0.480748
H 1.35652 2.784 1.040336
H 2.000387 -2.542348 -0.476564
H 0.431953 -3.387786 -0.513939
H 1.170197 -2.95019 1.03799
