18

C -1.523425 0.369925 -0.91565
C -0.848097 -0.828146 -0.247076
C 0.654601 -0.495558 -0.10039
C 0.712969 0.907225 0.518741
S -0.674957 1.844125 -0.22714
O -1.502801 2.433958 0.850736
O -0.165781 2.679629 -1.339803
H -2.59218 0.479475 -0.698206
H -1.353199 0.402777 -1.999664
H -1.286159 -0.999849 0.749845
H -0.999926 -1.74738 -0.833591
H 1.087301 -0.436211 -1.113971
C 1.433439 -1.537164 0.706307
H 1.632214 1.46552 0.305018
H 0.523847 0.891068 1.601203
H 2.498174 -1.270326 0.787748
H 1.373136 -2.527545 0.228035
H 1.030845 -1.631521 1.727857
