23

N -2.629091 -0.314112 0.255998
C -1.903325 -1.423119 -0.385978
C -0.472039 -1.461275 0.141168
N 0.215267 -0.189209 -0.137945
C -0.530165 0.922748 0.476953
C -1.963491 0.96401 -0.045477
O 3.841611 0.602485 0.02369
C 2.472816 0.840775 -0.376483
C 1.617565 -0.231728 0.292687
H -3.589504 -0.287026 -0.104883
H -2.410139 -2.36877 -0.140951
H -1.868405 -1.325885 -1.492021
H 0.083403 -2.271313 -0.355316
H -0.492885 -1.682074 1.231493
H -0.029924 1.87076 0.234165
H -0.550682 0.825173 1.585618
H -1.938029 1.184192 -1.133898
H -2.511944 1.776899 0.454223
H 4.383645 1.308545 -0.388354
H 2.358989 0.765013 -1.471903
H 2.159183 1.8533 -0.067317
H 1.721871 -0.150305 1.396606
H 2.035273 -1.209083 0.007923
