37

C -3.55989 -1.053305 -0.861068
C -2.953659 -1.738836 0.194852
C -1.564276 -1.697275 0.348711
C -0.733683 -0.977026 -0.526036
C -1.372235 -0.30804 -1.585966
C -2.757874 -0.337822 -1.757876
O -4.938997 -1.117811 -0.975439
C 0.800651 -0.944005 -0.390328
C 1.365099 0.514896 -0.368855
C 1.163966 1.533373 0.796205
C 1.680797 2.890359 0.262493
C 2.001297 1.180798 2.044263
C -0.310511 1.706827 1.204494
C 1.395662 -1.612375 -1.660728
C 1.28926 -1.771426 0.81393
H -3.574861 -2.303724 0.893999
H -1.131622 -2.24614 1.185813
H -0.779806 0.25859 -2.30766
H -3.216921 0.200247 -2.594107
H -5.198688 -0.589785 -1.761496
H 0.992848 1.004307 -1.284276
H 2.455735 0.428679 -0.522597
H 1.099442 3.223349 -0.611612
H 2.73847 2.828887 -0.040734
H 1.599615 3.670868 1.035309
H 3.053954 0.988559 1.781405
H 1.620443 0.298907 2.574741
H 1.988257 2.018682 2.759092
H -0.731794 0.790627 1.641334
H -0.940193 1.979642 0.344423
H -0.403269 2.507734 1.955748
H 0.99043 -2.626787 -1.790698
H 2.492185 -1.687327 -1.583183
H 1.161897 -1.039528 -2.570301
H 2.381361 -1.686201 0.912866
H 1.053394 -2.838078 0.679436
H 0.843514 -1.449838 1.763846
