32

C -4.470925 0.058542 0.448855
C -3.154014 0.833603 0.293336
C -1.962916 -0.138587 0.183186
C -0.573011 0.510199 0.207879
C 0.573011 -0.510199 0.207879
C 1.962916 0.138587 0.183186
C 3.154014 -0.833603 0.293336
C 4.470925 -0.058542 0.448855
C -3.235815 1.80475 -0.894395
C 3.235815 -1.80475 -0.894395
H -4.677725 -0.553292 -0.44576
H -5.324858 0.740339 0.588499
H -4.439666 -0.621185 1.315404
H -3.007151 1.434739 1.210178
H -2.072537 -0.732805 -0.743243
H -2.027577 -0.865116 1.013075
H -0.487271 1.154208 1.102094
H -0.45324 1.18099 -0.659786
H 0.45324 -1.18099 -0.659786
H 0.487271 -1.154208 1.102094
H 2.027577 0.865116 1.013075
H 2.072537 0.732805 -0.743243
H 3.007151 -1.434739 1.210178
H 4.677725 0.553292 -0.44576
H 5.324858 -0.740339 0.588499
H 4.439666 0.621185 1.315404
H -4.109196 2.46989 -0.802687
H -3.336982 1.255528 -1.846228
H -2.343422 2.443957 -0.970408
H 4.109196 -2.46989 -0.802687
H 3.336982 -1.255528 -1.846228
H 2.343422 -2.443957 -0.970408
