21

C -3.446226 0.091229 -0.042473
C -2.065007 0.75352 -0.062041
C -0.905819 -0.250323 -0.024294
C 0.479903 0.407155 -0.045729
C 1.637563 -0.599194 -0.008489
C 3.012041 0.068532 -0.029485
O 4.106557 -0.870027 -0.05131
H -3.584456 -0.574288 -0.909928
H -4.25295 0.840244 -0.066664
H -3.586586 -0.517786 0.865467
H -1.97564 1.442999 0.795689
H -1.972035 1.381893 -0.965008
H -0.994781 -0.941843 -0.881196
H -0.997717 -0.878184 0.880158
H 0.566762 1.099659 0.810594
H 0.569732 1.033616 -0.950991
H 1.569847 -1.289798 -0.865579
H 1.553233 -1.222418 0.901023
H 3.115684 0.763372 0.825867
H 3.131022 0.666468 -0.94522
H 4.038871 -1.404823 0.769609
