20

C 0.213226 0.293815 -2.585658
C 0.706085 -0.310445 -1.265158
C -0.024286 0.184824 0.0
C 0.706085 -0.310445 1.265158
C 0.213226 0.293815 2.585658
C -1.509143 -0.211014 0.0
H -0.828586 0.016888 -2.807513
H 0.828257 -0.052428 -3.430567
H 0.268042 1.394652 -2.565882
H 1.781114 -0.087528 -1.153671
H 0.630944 -1.411777 -1.314883
H 0.029817 1.290439 0.0
H 1.781114 -0.087528 1.153671
H 0.630944 -1.411777 1.314883
H 0.828257 -0.052428 3.430567
H -0.828586 0.016888 2.807513
H 0.268042 1.394652 2.565882
H -2.035107 0.178947 0.883508
H -1.624337 -1.308499 0.0
H -2.035107 0.178947 -0.883508
