17

C -0.303073 0.639498 -0.088525
C -0.321442 -0.89267 0.007776
C 1.12741 1.189328 -0.124922
C -1.104202 1.099437 -1.313136
C 0.212692 -1.45055 1.304651
O 0.583 -2.771005 1.170329
O 0.298742 -0.858494 2.373244
H -0.794793 1.029466 0.817937
H -1.358025 -1.265543 -0.078214
H 0.223685 -1.355833 -0.830445
H 1.676075 0.809938 -1.002958
H 1.122232 2.288125 -0.189681
H 1.691183 0.912153 0.777145
H -2.145469 0.741741 -1.278005
H -1.130294 2.198069 -1.375344
H -0.654426 0.72728 -2.248445
H 0.876705 -3.04094 2.078594
