17

C -2.709145 -0.779599 -0.071983
C -1.514464 -0.007654 0.434283
O -0.363781 -0.429147 -0.17423
C 0.88912 0.224678 0.257706
C 1.976267 -0.8379 0.183648
C 1.150314 1.433362 -0.632819
O -1.567794 0.864651 1.295172
H -2.530049 -1.213247 -1.064564
H -3.585375 -0.118566 -0.089975
H -2.922677 -1.600699 0.63114
H 0.736115 0.554073 1.293956
H 2.934806 -0.415638 0.52221
H 2.106201 -1.201967 -0.847032
H 1.732546 -1.696859 0.825787
H 1.243429 1.131465 -1.687669
H 2.087842 1.926376 -0.33193
H 0.336644 2.166671 -0.543701
