21

C -2.572927 1.250261 0.643597
C -1.489368 0.615187 -0.214108
O -0.401321 0.253037 0.650062
C 0.779641 -0.347682 0.029518
C 1.429933 0.620192 -0.971749
C 0.428224 -1.682569 -0.644342
C 1.716806 -0.584802 1.21725
H -3.431378 1.541369 0.017987
H -2.192175 2.149192 1.150546
H -2.925763 0.546062 1.411646
H -1.154455 1.328414 -0.988859
H -1.890737 -0.274298 -0.732898
H 0.806155 0.77814 -1.863813
H 2.395411 0.219933 -1.316563
H 1.61282 1.596295 -0.498614
H 1.342273 -2.187198 -0.992295
H -0.221857 -1.544461 -1.520913
H -0.083133 -2.349119 0.06591
H 1.942365 0.365991 1.721736
H 2.663257 -1.037646 0.885873
H 1.246229 -1.256298 1.950026
