21

C -0.703864 0.005086 -1.224235
C -1.388225 0.016334 0.0
C -0.703864 0.005086 1.224235
C 0.69805 -0.017013 1.203965
C 1.41762 -0.026162 0.0
C 0.69805 -0.017013 -1.203965
C -1.462358 0.011201 -2.530047
C 2.927039 -0.017237 0.0
C -1.462358 0.011201 2.530047
H -2.483629 0.029304 0.0
H 1.244132 -0.029024 2.153254
H 1.244132 -0.029024 -2.153254
H -2.102373 0.904541 -2.61937
H -2.124574 -0.866237 -2.615192
H -0.781003 0.000869 -3.392817
H 3.336219 -0.517991 -0.890218
H 3.336219 -0.517991 0.890218
H 3.318735 1.014898 0.0
H -2.124574 -0.866237 2.615192
H -2.102373 0.904541 2.61937
H -0.781003 0.000869 3.392817
