30

C 0.007415 0.075652 0.31689
C 0.698934 -1.288171 0.102827
C 2.187901 -1.252124 0.48308
C 2.944107 -0.159048 -0.282059
C 2.266566 1.204559 -0.100458
C 0.775568 1.158052 -0.472948
C -1.540187 0.06176 0.061938
H 0.12492 0.325888 1.389881
H 0.197697 -2.074139 0.686666
H 0.610448 -1.582383 -0.957639
H 2.646186 -2.238046 0.299597
H 2.279476 -1.066288 1.568569
H 2.962971 -0.415675 -1.356898
H 3.995939 -0.115596 0.045583
H 2.777889 1.972505 -0.704262
H 2.366016 1.522822 0.953181
H 0.685113 0.957667 -1.55489
H 0.331283 2.149759 -0.302783
C -2.214916 -0.956317 1.006864
C -1.891155 -0.30549 -1.394382
C -2.136154 1.450755 0.379212
H -1.921603 -1.992372 0.785138
H -3.310739 -0.902168 0.910477
H -1.96367 -0.752021 2.06038
H -2.982403 -0.284431 -1.542584
H -1.546841 -1.31658 -1.658695
H -1.45164 0.400992 -2.114402
H -3.23583 1.415971 0.332526
H -1.806006 2.220469 -0.333022
H -1.857286 1.783999 1.392214
