15

N -1.395429 0.0 0.0
C -0.651071 -1.127689 0.0
N 0.697714 -1.208477 0.0
C 1.302143 0.0 0.0
N 0.697714 1.208477 0.0
C -0.651071 1.127689 0.0
N -1.333004 2.30883 0.0
N 2.666007 0.0 0.0
N -1.333004 -2.30883 0.0
H -2.349386 2.302038 0.0
H -0.81893 3.185647 0.0
H 3.168316 0.883609 0.0
H 3.168316 -0.883609 0.0
H -2.349386 -2.302038 0.0
H -0.81893 -3.185647 0.0
