19

C -0.00074 -0.068329 -3.747019
C 0.110411 0.515566 -2.340637
C -0.128331 -0.503706 -1.248026
O 0.029721 0.14999 0.0
C -0.128331 -0.503706 1.248026
C 0.110411 0.515566 2.340637
C -0.00074 -0.068329 3.747019
O -0.405704 -1.672072 -1.399265
O -0.405704 -1.672072 1.399265
H -0.985589 -0.528437 -3.908926
H 0.757376 -0.846315 -3.915206
H 0.141811 0.720821 -4.500041
H -0.605602 1.340685 -2.186981
H 1.101507 0.966793 -2.165673
H -0.605602 1.340685 2.186981
H 1.101507 0.966793 2.165673
H 0.757376 -0.846315 3.915206
H -0.985589 -0.528437 3.908926
H 0.141811 0.720821 4.500041
