10

C -1.365349 -0.146998 -0.097632
C -0.199727 0.806047 -0.085704
C 1.227406 0.215314 0.069161
O 1.195266 -1.149154 0.23218
O -0.306161 2.020332 -0.192306
O 2.251626 0.872323 0.050045
H -1.393618 -0.732364 0.83557
H -1.254759 -0.878629 -0.914628
H -2.298116 0.417134 -0.219022
H 2.143431 -1.424004 0.322335
