33

C -5.446554 -1.045814 0.0
C -5.248315 -2.432356 0.0
C -3.944512 -2.93324 0.0
C -2.847798 -2.060418 0.0
C -3.029544 -0.669419 0.0
C -4.349502 -0.181699 0.0
C -1.878081 0.321294 0.0
C -0.458867 -0.253772 0.0
C 0.621501 0.835563 0.0
C 2.051889 0.284066 0.0
C 3.133565 1.371129 0.0
C 4.564317 0.819749 0.0
C 5.64112 1.909295 0.0
H -6.460072 -0.634932 0.0
H -6.103064 -3.114006 0.0
H -3.772048 -4.013337 0.0
H -1.839621 -2.480005 0.0
H -4.518504 0.900216 0.0
H -1.993957 0.985743 0.8756
H -1.993957 0.985743 -0.8756
H -0.318486 -0.90241 -0.881951
H -0.318486 -0.90241 0.881951
H 0.481076 1.487667 0.880619
H 0.481076 1.487667 -0.880619
H 2.191858 -0.368153 -0.880759
H 2.191858 -0.368153 0.880759
H 2.99469 2.024087 0.880605
H 2.99469 2.024087 -0.880605
H 4.702792 0.167744 -0.880269
H 4.702792 0.167744 0.880269
H 5.557568 2.55672 -0.88837
H 6.65301 1.474889 0.0
H 5.557568 2.55672 0.88837
