16

C 0.773611 0.385053 -1.258433
C 0.053118 -0.122489 0.0
N 0.158962 -1.608947 0.0
C -1.410865 0.364371 0.0
C 0.773611 0.385053 1.258433
H 0.288138 0.00621 -2.172674
H 1.81983 0.046326 -1.266498
H 0.760577 1.484519 -1.306428
H -0.358362 -1.969232 -0.814402
H -0.358362 -1.969232 0.814402
H -1.946986 -0.00177 0.890399
H -1.946986 -0.00177 -0.890399
H -1.474829 1.464856 0.0
H 1.81983 0.046326 1.266498
H 0.288138 0.00621 2.172674
H 0.760577 1.484519 1.306428
