21

C -0.23125 -0.207947 -0.291605
C 0.751421 -1.349626 0.041548
C 2.164162 -0.736167 -0.10898
C 1.969599 0.807539 -0.008924
C 0.475876 1.017114 0.321875
C -1.668986 -0.456013 0.180762
C -2.659626 0.659278 -0.172945
H -0.244123 -0.077485 -1.391361
H 0.583577 -1.667145 1.086031
H 0.599973 -2.239736 -0.589474
H 2.603589 -1.006415 -1.082015
H 2.854154 -1.117616 0.659486
H 2.214581 1.285901 -0.970783
H 2.627636 1.267686 0.74396
H 0.091635 1.978982 -0.050927
H 0.319893 1.009144 1.416004
H -1.661938 -0.612618 1.275077
H -2.026212 -1.405496 -0.255612
H -3.676662 0.413367 0.17131
H -2.709539 0.818828 -1.263165
H -2.377762 1.618425 0.289737
