23

C 0.0 -3.847318 -0.336092
C 0.0 -2.571764 0.513819
C 0.0 -1.284313 -0.321349
C 0.0 0.0 0.518055
C 0.0 1.284313 -0.321349
C 0.0 2.571764 0.513819
C 0.0 3.847318 -0.336092
H -0.888185 -3.894474 -0.987276
H 0.888185 -3.894474 -0.987276
H 0.0 -4.751855 0.292085
H -0.880647 -2.573211 1.179593
H 0.880647 -2.573211 1.179593
H 0.880816 -1.284402 -0.988388
H -0.880816 -1.284402 -0.988388
H -0.881004 0.0 1.184652
H 0.881004 0.0 1.184652
H 0.880816 1.284402 -0.988388
H -0.880816 1.284402 -0.988388
H -0.880647 2.573211 1.179593
H 0.880647 2.573211 1.179593
H 0.0 4.751855 0.292085
H 0.888185 3.894474 -0.987276
H -0.888185 3.894474 -0.987276
