28

C -0.895767 1.209049 -0.028742
C -0.34485 0.078462 0.595615
C 1.034117 0.099067 0.87236
C 1.828054 1.195804 0.539522
C 1.277803 2.329663 -0.089776
C -0.10409 2.308694 -0.365155
C 2.064541 3.512813 -0.457521
C 3.381875 3.720761 -0.268061
C -2.615405 -3.068958 0.158099
C -1.594673 -2.00624 -0.27257
C -0.369599 -2.650019 -0.933955
C -1.204324 -1.116492 0.937406
H -1.967832 1.233948 -0.247287
H 1.492578 -0.763537 1.365063
H 2.894819 1.171278 0.775498
H -0.562703 3.178042 -0.846575
H 1.487298 4.308798 -0.942347
H 3.855544 4.652194 -0.586162
H 4.035257 2.983896 0.207069
H -2.18474 -3.749235 0.912112
H -2.934635 -3.684861 -0.697131
H -3.515919 -2.611398 0.598223
H -2.079409 -1.352072 -1.018538
H -0.666574 -3.26706 -1.796408
H 0.162158 -3.306549 -0.224365
H 0.345078 -1.893607 -1.291171
H -0.685933 -1.743107 1.683088
H -2.132667 -0.769332 1.421707
