13

C -1.748332 -0.491087 -0.033106
C -0.526141 0.431032 -0.074258
C 0.800457 -0.323332 0.061286
C 2.031196 0.560759 0.044574
O 3.183903 0.147473 -0.017224
H -1.7209 -1.230908 -0.849364
H -2.683621 0.080646 -0.133628
H -1.797931 -1.048351 0.916358
H -0.603164 1.181654 0.731389
H -0.526499 1.002182 -1.018563
H 0.922606 -1.078914 -0.733746
H 0.831703 -0.895232 1.007212
H 1.836723 1.664077 0.099068
