14

C -1.782049 -0.398255 -0.013941
C -1.188685 -1.662819 0.001801
C 0.207133 -1.731159 0.007155
C 0.938981 -0.542752 -0.002692
C 0.259779 0.686812 -0.016759
N -1.091222 0.757759 -0.024565
C 1.005295 1.99635 0.000461
H -2.873474 -0.299145 -0.025219
H -1.80418 -2.565709 0.005925
H 0.718397 -2.697727 0.014672
H 2.032084 -0.563043 6.6e-05
H 0.411919 2.775932 -0.495754
H 1.986951 1.916633 -0.489851
H 1.17907 2.327125 1.038701
