19

O 0.065601 0.268439 -2.505475
C -0.075467 0.938151 -1.237193
C 0.081614 0.024601 0.0
C -0.075467 0.938151 1.237193
O 0.065601 0.268439 2.505475
C -1.024209 -1.047009 0.0
C 1.468662 -0.636473 0.0
H -0.695893 -0.341802 -2.593219
H -1.047774 1.464654 -1.193988
H 0.713244 1.705119 -1.234217
H -1.047774 1.464654 1.193988
H 0.713244 1.705119 1.234217
H -0.695893 -0.341802 2.593219
H -0.945176 -1.706521 0.878668
H -0.945176 -1.706521 -0.878668
H -2.030894 -0.596115 0.0
H 2.266892 0.122987 0.0
H 1.604433 -1.262035 -0.893815
H 1.604433 -1.262035 0.893815
