12

S -1.667004 -1.097555 -0.260544
C -0.172825 -0.167395 0.342013
C 1.055232 -0.97778 -0.082971
C -0.138837 1.268118 -0.179013
H -2.594855 -0.241543 0.242752
H -0.231303 -0.163342 1.440607
H 1.130433 -1.038016 -1.180598
H 1.021576 -2.002381 0.316397
H 1.971557 -0.494969 0.29226
H -1.026515 1.83613 0.137536
H -0.098822 1.287334 -1.278755
H 0.751364 1.791397 0.210315
