23

C -2.95147 -0.391991 -0.18663
C -1.620821 0.359717 -0.343313
C -0.441419 -0.527268 0.103704
C 0.957029 0.021145 -0.206718
C 2.088222 -0.932925 0.199687
C 3.485966 -0.393274 -0.120683
C -1.666245 1.701007 0.404441
H -2.9525 -1.33278 -0.759721
H -3.800417 0.215694 -0.537772
H -3.140388 -0.646267 0.870115
H -1.484017 0.57801 -1.418605
H -0.546349 -1.515459 -0.378896
H -0.528718 -0.714172 1.190066
H 1.107945 0.987465 0.303435
H 1.033391 0.233777 -1.288468
H 1.94297 -1.904143 -0.304741
H 2.0144 -1.141078 1.281388
H 3.609892 -0.217685 -1.2018
H 4.272785 -1.095767 0.195739
H 3.670385 0.565119 0.391594
H -2.523273 2.309662 0.075972
H -0.757486 2.299097 0.239834
H -1.769881 1.542114 1.491371
