13

C -1.946476 -0.369019 -0.132404
C -1.321362 -1.543547 0.180997
O 0.047469 -1.370377 0.196311
C 0.283938 -0.042578 -0.129169
C -0.909634 0.601095 -0.333701
O 1.936046 1.682319 0.412122
C 1.713734 0.387867 -0.182963
H -3.020801 -0.211355 -0.203709
H -1.668051 -2.544288 0.419318
H -1.02677 1.650372 -0.595872
H 1.512755 1.656812 1.299486
H 2.337819 -0.390662 0.291726
H 2.061334 0.493361 -1.222142
