26

C 0.0 0.0 0.741852
C 0.0 1.193095 1.496071
C 0.0 1.202104 2.888666
C 0.0 0.0 3.622024
C 0.0 -1.202104 2.888666
C 0.0 -1.193095 1.496071
C 0.0 0.0 -3.622024
C 0.0 1.202104 -2.888666
C 0.0 1.193095 -1.496071
C 0.0 0.0 -0.741852
C 0.0 -1.193095 -1.496071
C 0.0 -1.202104 -2.888666
N 0.0 0.0 -5.006975
N 0.0 0.0 5.006975
H 0.0 2.160203 0.990749
H 0.0 2.159743 3.418558
H 0.0 -2.159743 3.418558
H 0.0 -2.160203 0.990749
H 0.0 2.159743 -3.418558
H 0.0 2.160203 -0.990749
H 0.0 -2.160203 -0.990749
H 0.0 -2.159743 -3.418558
H 0.0 -0.868283 -5.532636
H 0.0 0.868283 -5.532636
H 0.0 -0.868283 5.532636
H 0.0 0.868283 5.532636
