20

C -2.989458 -0.582146 -0.10485
C -1.73928 0.243165 0.064046
C -0.456302 -0.554452 0.126076
N 0.763932 0.252047 0.077068
C 1.986385 -0.562755 0.115901
C 3.232534 0.297622 -0.071001
C -1.767912 1.58323 0.152973
H -2.967122 -1.154989 -1.048002
H -3.890945 0.046359 -0.107083
H -3.092553 -1.322183 0.708258
H -0.485737 -1.327364 -0.67771
H -0.445067 -1.128732 1.071147
H 0.756079 0.793279 -0.796676
H 1.975782 -1.374745 -0.645315
H 2.022899 -1.062308 1.098239
H 3.236475 0.785081 -1.059755
H 4.144115 -0.315188 -0.002144
H 3.283748 1.085464 0.695651
H -0.855686 2.165221 0.302152
H -2.711886 2.133396 0.101025
