20

C -2.040641 -0.163551 0.451285
O -0.906209 -0.465177 -0.250902
C 0.314012 0.284861 0.112836
C 1.478166 -0.679692 -0.115314
C 2.832224 -0.128942 0.346957
C 0.368441 1.562699 -0.715619
O -2.105814 0.680283 1.339214
C -3.197527 -1.026413 0.007561
H 0.22932 0.539221 1.178688
H 1.521026 -0.946161 -1.184623
H 1.255477 -1.611617 0.428792
H 3.131981 0.763655 -0.22225
H 3.622218 -0.882639 0.212554
H 2.813384 0.144752 1.414144
H 0.408272 1.332125 -1.791661
H 1.259494 2.152776 -0.454651
H -0.514268 2.186265 -0.519393
H -3.049767 -1.426008 -1.004197
H -4.125409 -0.442365 0.061559
H -3.294381 -1.874073 0.705022
