29

C 0.0 -3.957854 -0.575999
C 0.0 -2.739837 0.360031
C 0.0 -1.418876 -0.410612
S 0.0 0.0 0.723031
C 0.0 1.418876 -0.410612
C 0.0 2.739837 0.360031
C 0.0 3.957854 -0.575999
O -1.287049 0.0 1.458066
O 1.287049 0.0 1.458066
H 0.881578 -3.911702 -1.238843
C 0.0 -5.288834 0.182409
H -0.881578 -3.911702 -1.238843
H 0.883132 -2.772043 1.017063
H -0.883132 -2.772043 1.017063
H -0.897082 -1.308951 -1.037596
H 0.897082 -1.308951 -1.037596
H -0.897082 1.308951 -1.037596
H 0.897082 1.308951 -1.037596
H 0.883132 2.772043 1.017063
H -0.883132 2.772043 1.017063
H -0.881578 3.911702 -1.238843
H 0.881578 3.911702 -1.238843
C 0.0 5.288834 0.182409
H 0.888564 -5.381837 0.827354
H 0.0 -6.143246 -0.511364
H -0.888564 -5.381837 0.827354
H -0.888564 5.381837 0.827354
H 0.0 6.143246 -0.511364
H 0.888564 5.381837 0.827354
