24

C -2.671005 -1.192412 0.285956
C -1.48289 -0.259199 0.234456
C -0.260243 -0.739826 -0.077954
C 1.095273 -0.041896 -0.213802
C 2.132722 -1.106656 -0.63418
C -1.82476 1.172007 0.565023
C 1.064547 1.049187 -1.309316
C 1.556023 0.568067 1.130354
H -2.394016 -2.224778 0.028906
H -3.461729 -0.866546 -0.413495
H -3.129745 -1.198871 1.290595
H -0.222404 -1.81809 -0.278411
H 3.136776 -0.663616 -0.726786
H 1.870836 -1.55488 -1.60587
H 2.189452 -1.920136 0.1065
H -2.290198 1.233414 1.56436
H -2.573847 1.565325 -0.144643
H -0.965537 1.850289 0.5554
H 0.734903 0.628399 -2.271435
H 2.069477 1.478897 -1.453845
H 0.383771 1.874555 -1.058605
H 2.547112 1.039245 1.02128
H 1.634403 -0.208019 1.907113
H 0.861079 1.335539 1.498402
