20

C -3.535567 -0.707467 -0.053352
C -2.370544 0.285789 -0.060503
C -1.012958 -0.403299 0.090749
C 0.163326 0.550858 0.122335
O 1.342016 -0.132572 -0.024517
C 2.550451 0.690567 0.052025
O 0.098005 1.765545 0.277506
H -3.575202 -1.276825 0.889859
H -3.45217 -1.436777 -0.875989
H -2.492312 1.022655 0.748068
H -2.377136 0.868892 -0.995362
C 3.747131 -0.22331 -0.121257
H 2.558412 1.204688 1.024145
H 2.49776 1.461121 -0.731064
H -4.499849 -0.188602 -0.167556
H -0.843418 -1.14261 -0.709225
H -0.977095 -0.987223 1.028146
H 3.725065 -0.729439 -1.097715
H 3.780182 -0.990494 0.667012
H 4.673905 0.368501 -0.063306
