18

C 1.682858 -1.578921 0.0
C 3.145271 -1.604949 0.0
N 4.318364 -1.600845 0.0
C 1.10064 -0.149703 0.0
C -0.431621 -0.146657 0.0
C -1.034312 1.263793 0.0
C -2.565824 1.268584 0.0
H 1.327771 -2.137064 0.882728
H 1.327771 -2.137064 -0.882728
H 1.480708 0.3911 -0.881186
H 1.480708 0.3911 0.881186
H -0.800911 -0.701047 0.88129
H -0.800911 -0.701047 -0.88129
H -0.663953 1.816832 -0.880291
H -0.663953 1.816832 0.880291
H -2.969833 0.756819 0.888481
H -2.969833 0.756819 -0.888481
H -2.96294 2.295416 0.0
