27

C -3.70927 0.187868 -0.468402
C -2.335306 0.85131 -0.336861
C -1.219893 -0.083523 0.146447
O 0.017094 0.659445 0.011595
C 1.215959 -0.142876 -0.122701
C 2.3795 0.756832 0.311059
C 3.727327 0.040817 0.437775
C -1.408485 -0.560882 1.586073
C 1.360305 -0.673514 -1.549934
H -3.674954 -0.68556 -1.140323
H -4.443605 0.893801 -0.88597
H -4.102797 -0.151505 0.502102
H -2.393055 1.711547 0.351929
H -2.01946 1.260697 -1.309407
H -1.191767 -0.96157 -0.526423
H 1.16173 -0.997766 0.578521
H 2.101146 1.209428 1.275838
H 2.460068 1.590995 -0.406713
H 4.499132 0.729864 0.813337
H 4.083247 -0.350004 -0.527916
H 3.67147 -0.806179 1.141248
H -0.59224 -1.228369 1.900397
H -2.348354 -1.122493 1.701956
H -1.430023 0.299278 2.273131
H 1.415275 0.163737 -2.263212
H 0.507248 -1.307248 -1.834642
H 2.269708 -1.284131 -1.658903
