24

C -0.326999 0.084799 0.068492
C -0.415607 -1.436964 0.092726
C 1.119973 0.569814 0.017638
O -1.057841 0.543596 -1.123396
C 0.383363 -2.007598 1.274136
C 1.922741 0.001487 1.197809
C -1.670991 1.764512 -1.033813
C 1.841129 -1.529293 1.252155
C -2.376406 2.093982 -2.32522
O -1.65071 2.481968 -0.039627
H -0.828716 0.51669 0.946824
H -1.47072 -1.749298 0.144166
H -0.010778 -1.830363 -0.855786
H 1.567759 0.23798 -0.934866
H 1.141108 1.669764 0.026484
H -0.088918 -1.693509 2.221549
H 0.336922 -3.108426 1.254958
H 2.971551 0.332271 1.128094
H 1.529287 0.421779 2.140383
H 2.381496 -1.91032 2.134103
H 2.349231 -1.954197 0.367988
H -1.65815 2.108064 -3.157781
H -3.12426 1.322212 -2.558715
H -2.864465 3.071049 -2.238302
