18

S -0.388966 1.822213 -0.002013
O -0.197515 0.140801 0.009547
O 1.297175 1.966893 -0.015059
O -0.941222 2.25196 -1.319913
C -1.49384 -0.543095 -0.011635
C 1.708333 3.373431 -0.034541
C -1.218285 -2.033698 0.031071
C 3.223375 3.40521 0.02059
H -2.08957 -0.222345 0.859569
H -2.030785 -0.262392 -0.930117
H 1.331519 3.842793 -0.95594
H 1.267382 3.891386 0.834147
H -0.6189 -2.344612 -0.83629
H -0.678427 -2.311222 0.947533
H -2.171699 -2.583788 0.008993
H 3.597116 2.926465 0.936986
H 3.658448 2.888692 -0.84687
H 3.566863 4.451308 0.009942
