18

C -0.635889 -2.249715 0.59857
C 0.209207 -1.43414 -0.396623
C 0.062129 0.069713 -0.266071
C -1.284608 0.630025 -0.650512
C 1.104754 0.817141 0.153322
C 1.176904 2.303956 0.352079
H -0.493349 -3.329745 0.436762
H -1.711759 -2.042906 0.492876
H -0.350791 -2.021481 1.63747
H -0.066871 -1.736691 -1.424091
H 1.270156 -1.702235 -0.269988
H -1.512233 0.402019 -1.707007
H -1.350713 1.717952 -0.522515
H -2.094108 0.177297 -0.054234
H 2.034146 0.280054 0.383987
H 0.239502 2.821414 0.10638
H 1.974851 2.747091 -0.269084
H 1.428673 2.550252 1.398679
