42

C -6.176699 -1.831454 -0.053849
C -5.203261 -3.01873 0.215506
C -3.816089 -2.379706 0.448544
C -3.864787 -1.045137 -0.322667
C -5.299193 -0.557812 -0.034431
C -2.774792 -0.027808 0.032355
C -1.339704 -0.484004 -0.262169
C -0.279944 0.57123 0.078332
C 1.156276 0.122415 -0.217243
C 2.216925 1.180141 0.111747
C 3.651691 0.732535 -0.192561
H -6.984258 -1.778762 0.691606
H -6.665277 -1.951014 -1.0332
H -5.519251 -3.637289 1.068632
H -5.169117 -3.688449 -0.657976
H -2.991469 -3.036213 0.134156
H -3.667554 -2.16507 1.521865
H -3.791014 -1.273639 -1.40319
H -5.640978 0.209466 -0.74628
H -5.320228 -0.095467 0.967883
H -2.864032 0.232161 1.103567
H -2.968974 0.910464 -0.518217
H -1.253914 -0.75253 -1.330628
H -1.121604 -1.409576 0.297969
H -0.364516 0.842813 1.146025
H -0.495451 1.498725 -0.482745
H 1.239449 -0.156064 -1.283318
H 1.372718 -0.801288 0.34961
H 2.13962 1.457259 1.178556
H 1.996017 2.10424 -0.452725
C 4.712609 1.793933 0.123162
H 3.726622 0.449129 -1.257964
H 3.874715 -0.187951 0.376985
H 4.644761 2.075003 1.18977
C 6.146753 1.351096 -0.191531
H 4.48492 2.716045 -0.442215
H 6.214076 1.068415 -1.256786
H 6.376637 0.432552 0.3768
C 7.198823 2.420743 0.12002
H 7.021426 3.338928 -0.463897
H 8.215445 2.069444 -0.115373
H 7.182624 2.701225 1.185877
