17

C -1.179959 -0.283565 -0.101416
C -0.348217 -1.594321 -0.063157
C 1.141054 -1.149787 0.038454
C 1.131049 0.358491 -0.265393
C -0.208097 0.834127 0.318626
N -0.620218 2.156452 -0.196562
H -2.074336 -0.327003 0.539359
H -1.522693 -0.065675 -1.125817
H -0.630026 -2.227959 0.791107
H -0.526283 -2.194845 -0.967587
H 1.799842 -1.712883 -0.638822
H 1.517616 -1.322471 1.059433
H 1.118375 0.544599 -1.352418
H 2.000544 0.888426 0.154821
H -0.119348 0.821356 1.425615
H 0.041527 2.864363 0.151107
H -1.520827 2.410696 0.232652
