15

C -1.803004 -0.612356 0.011478
C -0.536267 0.201664 0.270893
C 0.723988 -0.489863 -0.248514
C 2.019215 0.281437 0.016751
O -0.612184 1.499669 -0.374983
H -1.946661 -0.771617 -1.068324
H -2.693912 -0.093994 0.40227
H -1.751267 -1.59516 0.506794
H -0.425557 0.356344 1.362377
H 0.602844 -0.667628 -1.330591
H 0.777182 -1.485154 0.22368
H 2.004254 1.263474 -0.47571
H 2.891462 -0.275796 -0.357955
H 2.170328 0.449947 1.095497
H -1.420421 1.939035 -0.033664
