45

C -7.939981 -1.22381 -0.448582
C -7.903284 -2.545997 0.008379
C -6.701701 -3.063153 0.50372
C -5.550796 -2.266373 0.54396
C -5.571649 -0.93596 0.094611
C -6.78638 -0.434279 -0.407063
C -4.358483 -0.026702 0.170589
C -2.982926 -0.696515 0.03641
C -1.831851 0.316591 0.053762
C -0.440501 -0.320935 -0.052196
C 0.703924 0.698608 -0.009293
C 2.100931 0.073072 -0.108014
C 3.239354 1.097941 -0.030816
C 4.640351 0.480948 -0.1277
C 5.774569 1.507108 -0.017504
C 7.178582 0.895909 -0.109802
C 8.30376 1.928145 0.016521
H -8.870822 -0.803059 -0.839831
H -8.801427 -3.168604 -0.026059
H -6.655359 -4.096627 0.858077
H -4.623563 -2.69581 0.931056
H -6.826368 0.597325 -0.770827
H -4.392115 0.522439 1.130165
H -4.456238 0.747601 -0.608976
H -2.950271 -1.281753 -0.898471
H -2.83352 -1.420586 0.854591
H -1.888038 0.914927 0.980733
H -1.966956 1.035166 -0.774188
H -0.375888 -0.905009 -0.987453
H -0.310247 -1.051364 0.766352
H 0.632419 1.285858 0.923725
H 0.573573 1.426049 -0.830542
H 2.181839 -0.491457 -1.054233
H 2.225745 -0.673407 0.696835
H 3.154675 1.665613 0.91324
H 3.114282 1.841065 -0.838732
H 4.732983 -0.063786 -1.084629
H 4.759564 -0.281431 0.66298
H 5.678169 2.056745 0.936431
H 5.658308 2.266342 -0.811983
H 7.278594 0.36004 -1.070181
H 7.293518 0.128259 0.675329
H 8.242888 2.687767 -0.780121
H 9.295859 1.454717 -0.052028
H 8.254479 2.458381 0.981758
