21

C -3.773617 -0.343496 0.001935
C -2.545933 0.548873 -0.055385
O -1.370331 -0.268359 0.035934
C -0.166626 0.508288 -0.0285
C 1.035167 -0.422849 0.054283
C 2.374355 0.321733 -0.019421
C 3.586528 -0.61237 0.056865
H -3.766674 -1.071007 -0.823285
H -4.688965 0.263383 -0.078819
H -3.809795 -0.899422 0.950718
H -2.555598 1.283269 0.774776
H -2.525917 1.126681 -1.001003
H -0.148501 1.242782 0.802301
H -0.143856 1.087796 -0.973756
H 0.968261 -1.158615 -0.764734
H 0.974142 -0.997203 0.993655
H 2.429299 1.060423 0.799252
H 2.41972 0.90442 -0.955757
H 4.531591 -0.050211 -0.000104
H 3.582512 -1.34188 -0.769007
H 3.594236 -1.182233 1.000052
