14

C -2.978305 -0.453568 -0.007192
O -1.738564 0.309676 -0.012388
C -0.621988 -0.452761 0.008779
C 0.621988 0.452761 0.008779
O 1.738564 -0.309676 -0.012388
C 2.978305 0.453568 -0.007192
O -0.591104 -1.674079 0.028381
O 0.591104 1.674079 0.028381
H -3.02278 -1.107782 -0.888365
H -3.77572 0.296201 -0.033675
H -3.041879 -1.062606 0.90446
H 3.02278 1.107782 -0.888365
H 3.77572 -0.296201 -0.033675
H 3.041879 1.062606 0.90446
