14

C -2.025775 -0.271958 0.0
C -1.244059 -1.432999 0.0
C 0.150504 -1.348526 0.0
C 0.777722 -0.092361 0.0
C -0.005296 1.076605 0.0
C -1.39839 0.97953 0.0
N 2.175831 -0.047826 0.0
C 3.086954 0.758128 0.0
O 4.067666 1.43737 0.0
H -3.116341 -0.340317 0.0
H -1.720982 -2.416421 0.0
H 0.767603 -2.249898 0.0
H 0.482253 2.054852 0.0
H -1.997692 1.893821 0.0
