28

N -5.550898 0.019228 0.017697
C -4.272486 0.75895 -0.040075
C -3.094702 -0.210985 0.042473
N -1.81492 0.506272 -0.005866
C -0.653703 -0.392876 0.036868
C 0.654033 0.395106 -0.038466
N 1.814859 -0.504342 0.005051
C 3.095225 0.211893 -0.040849
C 4.271898 -0.759592 0.038942
N 5.551338 -0.02123 -0.015072
H -5.650525 -0.535618 -0.843511
H -6.32362 0.696297 -0.015802
H -4.2308 1.441222 0.82161
H -4.163044 1.385187 -0.950346
H -3.18912 -0.973003 -0.764599
H -3.151902 -0.760258 0.994936
H -1.776321 1.040963 -0.883579
H -0.662653 -1.158021 -0.767367
H -0.693877 -0.942306 0.993277
H 0.662745 1.16092 0.765188
H 0.694679 0.943961 -0.995227
H 1.774844 -1.040308 0.881916
H 3.190307 0.971469 0.768462
H 3.153285 0.764147 -0.991545
H 4.230066 -1.4384 -0.825465
H 4.161086 -1.389239 0.946694
H 6.323061 -0.69953 0.016282
H 5.651146 0.530092 0.848375
