16

C 0.330209 1.528902 -0.111289
C 0.354167 0.016545 0.037203
C 1.668407 2.230568 -0.023027
O -0.719646 2.150035 -0.29
C -1.021418 -0.626357 -0.05923
C -0.984044 -2.125228 0.093554
O -2.243622 -2.668794 -0.004885
O 0.012369 -2.812978 0.283338
H 1.036881 -0.399906 -0.723028
H 0.840405 -0.233666 0.995533
H 2.364821 1.834601 -0.780019
H 1.541683 3.3104 -0.165585
H 2.136875 2.040872 0.956561
H -1.70513 -0.215973 0.700129
H -1.505684 -0.384641 -1.018041
H -2.106274 -3.644382 0.108786
