36

C -5.388939 0.122749 -0.04141
C -4.023674 0.821312 -0.048513
C -2.832145 -0.143292 -0.010514
C -1.468309 0.557369 -0.030854
C -0.276993 -0.407807 0.007797
C 1.087078 0.291838 -0.027733
C 2.276802 -0.675361 0.011399
C 3.641428 0.023443 -0.039384
C 4.826406 -0.95273 0.002451
C 6.179181 -0.243387 -0.050674
S 7.640396 -1.36879 -0.072351
H -5.465989 -0.516247 0.855888
C -6.571411 1.096085 -0.07954
H -5.449348 -0.563435 -0.904509
H -3.963991 1.510283 0.813606
H -3.948165 1.460565 -0.946921
H -2.897081 -0.836593 -0.868602
H -2.903722 -0.776978 0.891858
H -1.402475 1.252716 0.825454
H -1.397156 1.188842 -0.934769
H -0.348193 -1.108544 -0.843661
H -0.34318 -1.033472 0.915993
H 1.159723 0.994271 0.822193
H 1.153164 0.915221 -0.937485
H 2.199256 -1.383508 -0.833062
H 2.216513 -1.292125 0.925809
H 3.719718 0.733731 0.803284
H 3.703565 0.636363 -0.956285
H 4.760997 -1.663748 -0.8374
H 4.770693 -1.560979 0.921491
H 6.297127 0.469342 0.778971
H 6.281867 0.332741 -0.983386
H 7.407361 -1.940752 1.139361
H -7.535488 0.563868 -0.069573
H -6.546366 1.721237 -0.987064
H -6.55865 1.775772 0.788135
