51

C -10.124153 -0.413329 0.019623
C -8.852035 0.439648 -0.027315
C -7.55952 -0.383876 0.046955
C -6.283034 0.465037 -0.002296
C -4.987987 -0.354228 0.06983
C -3.718407 0.505536 0.017548
C -2.418853 -0.307116 0.085113
C -1.179902 0.576317 0.026738
O -0.00235 -0.239675 0.086496
C 1.193121 0.54895 0.014309
C 2.411428 -0.362846 0.066684
C 3.729439 0.41748 -0.01766
C 4.978637 -0.472116 0.024948
C 6.291605 0.316257 -0.063207
C 7.549182 -0.560906 -0.024129
C 8.858396 0.233583 -0.117375
C 10.112607 -0.645941 -0.08149
H -10.156889 -1.129028 -0.818035
H -11.030405 0.209513 -0.039866
H -10.182262 -0.996389 0.953142
H -8.866101 1.168505 0.801822
H -8.846572 1.040075 -0.953817
H -7.546098 -1.113534 -0.782608
H -7.563968 -0.985449 0.973679
H -6.298429 1.195068 0.826811
H -6.281501 1.066058 -0.929333
H -4.970323 -1.083207 -0.75974
H -4.984898 -0.954517 0.996923
H -3.739791 1.234073 0.847585
H -3.726912 1.106426 -0.909293
H -2.380556 -1.028524 -0.748012
H -2.389422 -0.900863 1.013708
H -1.179403 1.298934 0.867965
H -1.175138 1.171634 -0.908964
H 1.214819 1.274983 0.852456
H 1.194903 1.140167 -0.924014
H 2.346926 -1.086478 -0.763145
H 2.376677 -0.952261 0.997823
H 3.776693 1.149783 0.808212
H 3.743225 1.013133 -0.947822
H 4.934964 -1.201984 -0.803121
H 4.971127 -1.070494 0.953229
H 6.331786 1.049354 0.762561
H 6.294559 0.913353 -0.992795
H 7.510135 -1.293749 -0.850299
H 7.551145 -1.158345 0.905262
H 8.897702 0.966007 0.708004
H 8.854836 0.829639 -1.046717
H 11.031133 -0.042225 -0.148245
H 10.12361 -1.361811 -0.919435
H 10.166253 -1.230626 0.851307
