18

C -1.543111 -0.823937 0.76394
C -0.418037 0.114599 0.306127
C 0.788584 -0.714921 -0.189268
C 2.013202 0.089542 -0.636416
C -0.931395 1.08714 -0.757553
O -0.014395 0.96224 1.425749
H -1.914539 -1.440777 -0.069434
H -2.385231 -0.243586 1.168212
H -1.189344 -1.510582 1.550975
H 0.448987 -1.367002 -1.011918
H 1.082385 -1.398317 0.628204
H 1.813548 0.671033 -1.549194
H 2.85723 -0.582062 -0.855359
H 2.33225 0.79261 0.146778
H -1.231932 0.546604 -1.667577
H -0.159073 1.820341 -1.027063
H -1.802284 1.640004 -0.377597
H 0.253157 0.357071 2.151398
