18

C 0.0 0.0 -1.527817
C -1.228151 -0.380994 -0.666014
C -1.228151 0.380994 0.666014
C 0.0 0.0 1.527817
C 1.228151 -0.380994 0.666014
C 1.228151 0.380994 -0.666014
H -0.255292 0.843231 -2.190845
H 0.255292 -0.843231 -2.190845
H -2.158749 -0.192104 -1.224742
H -1.217052 -1.464489 -0.45581
H -2.158749 0.192104 1.224742
H -1.217052 1.464489 0.45581
H -0.255292 -0.843231 2.190845
H 0.255292 0.843231 2.190845
H 1.217052 -1.464489 0.45581
H 2.158749 -0.192104 1.224742
H 2.158749 0.192104 -1.224742
H 1.217052 1.464489 -0.45581
