24

C -2.645555 0.295355 -0.005011
C -1.89812 -0.891765 0.024456
C -0.499769 -0.873975 0.064889
C 0.214983 0.333718 0.079665
C -0.534891 1.521732 0.044152
C -1.931657 1.503833 0.005121
C -4.154359 0.268978 -0.047628
C 4.016037 -0.712288 -0.05168
C 2.497264 -0.895903 -0.133555
C 1.730746 0.402713 0.142341
H -2.416297 -1.856273 0.012667
H 0.035147 -1.826171 0.084996
H -0.014513 2.485215 0.045594
H -2.479476 2.451104 -0.0238
H -4.573821 -0.250857 0.829603
H -4.524354 -0.259384 -0.941772
H -4.574266 1.285494 -0.063673
H 4.545056 -1.656449 -0.253104
H 4.325058 -0.365778 0.948126
H 4.370666 0.031746 -0.783591
H 2.187823 -1.67237 0.58555
H 2.223963 -1.278399 -1.131568
H 2.072394 1.175584 -0.569003
H 2.027941 0.78414 1.137226
