21

C -2.345149 1.037047 0.323498
C -1.242926 1.104099 -0.437015
C 0.003838 0.251238 -0.354836
C 1.178955 1.137246 0.139949
C 2.576006 0.546652 -0.083327
C -0.151485 -1.037641 0.470421
H -3.166803 1.744286 0.185647
H -2.47999 0.281866 1.10188
H -1.193324 1.900219 -1.190922
H 0.253778 -0.046247 -1.392877
H 1.02616 1.354318 1.211072
H 1.12169 2.113331 -0.370908
H 2.755344 0.334149 -1.149805
H 2.728732 -0.391243 0.471819
H 3.354011 1.250526 0.250214
C -1.013541 -2.118764 -0.193625
H -0.555975 -0.788253 1.466249
H 0.848334 -1.458468 0.659198
H -0.571594 -2.442055 -1.149858
H -2.03201 -1.76277 -0.405795
H -1.09405 -3.009536 0.44902
