46

C 3.064212 0.443636 -3.579507
C 1.993289 1.310772 -3.333251
C 1.215225 1.15987 -2.183175
C 1.489935 0.141759 -1.249115
C 2.586155 -0.708167 -1.499448
C 3.355733 -0.568382 -2.657226
C 0.687671 0.0 0.0
C -0.687671 0.0 0.0
C -1.993289 -1.310772 -3.333251
C -3.064212 -0.443636 -3.579507
C -3.355733 0.568382 -2.657226
C -2.586155 0.708167 -1.499448
C -1.489935 -0.141759 -1.249115
C -1.215225 -1.15987 -2.183175
C -2.586155 -0.708167 1.499448
C -3.355733 -0.568382 2.657226
C -3.064212 0.443636 3.579507
C -1.993289 1.310772 3.333251
C -1.215225 1.15987 2.183175
C -1.489935 0.141759 1.249115
C 1.489935 -0.141759 1.249115
C 1.215225 -1.15987 2.183175
C 1.993289 -1.310772 3.333251
C 3.064212 -0.443636 3.579507
C 3.355733 0.568382 2.657226
C 2.586155 0.708167 1.499448
H 3.672547 0.562097 -4.480218
H 1.764282 2.113525 -4.039609
H 0.382502 1.841759 -1.999267
H 2.829345 -1.492876 -0.778676
H 4.19261 -1.249014 -2.836122
H -1.764282 -2.113525 -4.039609
H -3.672547 -0.562097 -4.480218
H -4.19261 1.249014 -2.836122
H -2.829345 1.492876 -0.778676
H -0.382502 -1.841759 -1.999267
H -2.829345 -1.492876 0.778676
H -4.19261 -1.249014 2.836122
H -3.672547 0.562097 4.480218
H -1.764282 2.113525 4.039609
H -0.382502 1.841759 1.999267
H 0.382502 -1.841759 1.999267
H 1.764282 -2.113525 4.039609
H 3.672547 -0.562097 4.480218
H 4.19261 1.249014 2.836122
H 2.829345 1.492876 0.778676
