13

C -1.964522 -0.326283 -0.326302
O -1.24047 -1.499725 -0.341221
C 0.150932 -1.190678 -0.072792
C 0.261222 0.308909 -0.367102
O -1.123491 0.757346 -0.219874
O -3.169697 -0.263972 -0.394809
H 0.775121 -1.813819 -0.725728
H 0.363936 -1.427994 0.98248
H 0.533093 0.47569 -1.422632
C 1.174626 1.096043 0.549962
H 2.214659 0.754211 0.426156
H 0.885412 0.962484 1.603278
H 1.139177 2.167788 0.308584
