18

C -1.197433 -1.656562 0.498616
C -0.42338 -0.910317 -0.605205
C -0.132997 0.538388 -0.270884
C -1.29721 1.487377 -0.430858
C 1.065906 0.989035 0.153961
C 2.329067 0.208087 0.379831
H -0.623679 -1.674207 1.437731
H -1.397601 -2.698406 0.202306
H -2.16739 -1.180439 0.708563
H -1.012866 -0.948196 -1.538076
H 0.510859 -1.451244 -0.815452
H -1.649134 1.508905 -1.477713
H -1.029397 2.513779 -0.140826
H -2.160926 1.17879 0.183015
H 1.146239 2.062456 0.3691
H 3.154046 0.598496 -0.241228
H 2.221599 -0.862724 0.159178
H 2.664299 0.296783 1.42794
