24

C -0.852609 0.137424 0.0
C 0.005963 0.419132 -1.259678
C 1.35911 -0.307325 -1.26708
C 2.169561 0.002058 0.0
C 1.35911 -0.307325 1.26708
C 0.005963 0.419132 1.259678
C -1.360921 -1.318598 0.0
C -2.072853 1.0768 0.0
H -0.571612 0.160194 -2.164027
H 0.189322 1.507756 -1.315581
H 1.929886 -0.020544 -2.165768
H 1.201657 -1.397233 -1.34395
H 2.450149 1.071573 0.0
H 3.114617 -0.566206 0.0
H 1.929886 -0.020544 2.165768
H 1.201657 -1.397233 1.34395
H 0.189322 1.507756 1.315581
H -0.571612 0.160194 2.164027
H -0.544069 -2.054785 0.0
H -1.982023 -1.515538 -0.888889
H -1.982023 -1.515538 0.888889
H -2.702974 0.912197 -0.889541
H -1.762536 2.134457 0.0
H -2.702974 0.912197 0.889541
