16

C -0.812954 0.892424 0.002164
C -0.81181 -0.49996 0.013159
C 0.395484 1.612146 -0.041799
N -2.13324 1.550184 0.041978
C 0.404344 -1.173046 0.014605
C 1.606237 0.904652 -0.06093
Cl 0.460797 3.338022 -0.14014
O -3.036575 1.026443 -0.640379
O -2.255 2.551434 0.770651
C 1.618691 -0.484873 -0.022891
N 0.405621 -2.646062 0.051215
O -0.698817 -3.223162 0.115155
O 1.515202 -3.218063 0.015115
H -1.751651 -1.050835 0.021424
H 2.540283 1.466531 -0.112556
H 2.553386 -1.045833 -0.02677
