24

C 0.049744 0.011719 -0.244184
C 0.961719 -1.183495 0.121579
C 2.418848 -0.703036 -0.110604
C 2.338891 0.84091 -0.276811
C 0.913853 1.224357 0.161157
C -1.359144 -0.03419 0.379839
C -2.194067 1.203833 0.013771
C -2.119746 -1.314331 -0.00348
H -0.06691 0.034219 -1.34554
H 0.809026 -1.436172 1.185275
H 0.723897 -2.089476 -0.454548
H 2.859258 -1.17227 -1.003646
H 3.063072 -0.98557 0.735851
H 2.487012 1.115971 -1.333721
H 3.114229 1.370354 0.297543
H 0.576932 2.171282 -0.28563
H 0.869752 1.348082 1.2584
H -1.223881 -0.038481 1.47845
H -2.340287 1.271835 -1.077672
H -1.719335 2.138846 0.346012
H -3.192279 1.157765 0.477179
H -1.592422 -2.223511 0.32107
H -2.257592 -1.379187 -1.096214
H -3.12057 -1.329454 0.455923
