30

C -6.54437 -0.235976 -0.010233
O -5.335562 0.525953 -0.009703
C -4.179498 -0.317513 0.001113
C -2.950997 0.579755 0.003887
O -1.79417 -0.264419 0.013226
C -0.579074 0.493291 0.016862
C 0.579002 -0.492746 0.012534
O 1.794186 0.264809 0.014802
C 2.950865 -0.579483 -0.002863
C 4.179621 0.31744 0.000629
O 5.335463 -0.526225 -0.017893
C 6.54442 0.235446 -0.015527
H -6.613385 -0.882191 -0.906531
H -7.375306 0.481317 -0.01792
H -6.621065 -0.870945 0.893452
H -4.165828 -0.974483 -0.889413
H -4.176545 -0.96551 0.898302
H -2.964108 1.234918 0.895076
H -2.954723 1.227745 -0.892619
H -0.523898 1.138139 0.914095
H -0.523559 1.146672 -0.874147
H 0.523088 -1.138748 -0.88377
H 0.524208 -1.144967 0.904484
H 2.953385 -1.22005 -0.904672
H 2.964723 -1.241832 0.882967
H 4.177537 0.958017 0.903133
H 4.165455 0.981603 -0.884508
H 6.611893 0.88767 -0.907583
H 7.375256 -0.48191 -0.029467
H 6.622985 0.864225 0.892292
