21

C -2.191285 0.676755 -0.001797
C -0.786379 1.245195 -0.232457
C 0.389158 0.334891 0.180588
C 1.700341 1.121136 0.021192
O 2.869955 0.420227 0.494897
C 0.448738 -1.010546 -0.581941
C -0.224107 -2.194257 0.125962
H -2.380537 -0.218013 -0.613026
H -2.95845 1.420683 -0.265783
H -2.347269 0.400752 1.053481
H -0.698325 2.198776 0.317062
H -0.672665 1.503321 -1.300464
H 0.278264 0.115363 1.261359
H 1.616623 2.101274 0.526577
H 1.899429 1.31914 -1.043107
H 2.719714 0.236836 1.447296
H 1.506662 -1.267733 -0.745543
H 0.006894 -0.876391 -1.584936
H -0.138703 -3.113121 -0.474934
H -1.293289 -2.021121 0.317571
H 0.25523 -2.393166 1.098002
