52

C -0.176994 1.28898 0.086092
C -0.186428 -0.276896 0.06157
C 1.214356 2.00542 0.112065
C -1.142104 1.823499 1.15484
C -1.628483 -0.675424 -0.402138
C 0.832134 -0.77983 -0.987306
C 0.115733 -0.91825 1.431391
C 2.148134 1.364398 -0.961291
C 1.000139 3.441493 -0.385882
C 1.923564 2.016318 1.48037
C -2.478259 1.151504 1.0954
C -2.722149 0.01775 0.397732
C -1.906967 -2.188482 -0.453317
C 2.221198 -0.157793 -0.837455
O 1.974997 4.314373 0.046419
O 0.114484 3.820037 -1.144603
C -4.057012 -0.56094 0.346061
C -3.301007 -2.483417 -1.019135
C -4.381286 -1.696239 -0.31757
C -5.811698 -2.196677 -0.368125
C -6.33028 -2.321431 -1.813136
C -5.99211 -3.525043 0.39119
H -0.606723 1.587136 -0.884634
H -1.720718 -0.31074 -1.444749
H -0.715926 1.701574 2.168628
H -1.271023 2.911924 1.025352
H 0.906687 -1.877661 -0.938205
H 0.451199 -0.538201 -1.995878
H -0.634402 -0.643452 2.185816
H 0.115641 -2.014655 1.351514
H 1.099353 -0.631318 1.820576
H 1.76043 1.615062 -1.963041
H 3.150088 1.815043 -0.882757
H 2.124902 0.998331 1.829968
H 2.886044 2.53926 1.41232
H 1.326877 2.521608 2.251193
H -3.301455 1.616711 1.650742
H -1.146774 -2.697576 -1.064858
H -1.844674 -2.615109 0.560206
H 2.677223 -0.448383 0.122443
H 2.892373 -0.549624 -1.619173
H 1.745496 5.167547 -0.4041
H -4.848682 -0.006134 0.864341
H -3.319431 -2.257894 -2.102555
H -3.505777 -3.564248 -0.944275
H -6.429986 -1.439052 0.142919
H -7.387156 -2.630763 -1.819581
H -6.250289 -1.364968 -2.351881
H -5.764866 -3.076495 -2.381544
H -5.64656 -3.440375 1.43244
H -7.052946 -3.821027 0.406812
H -5.432887 -4.344868 -0.085211
