15

C -2.709861 0.114081 0.0
C -1.829749 -0.932841 0.0
C -0.45705 -0.507826 0.0
C -0.341055 0.911353 0.0
S -1.920959 1.670908 0.0
H -3.798335 0.074795 0.0
H -2.142148 -1.978534 0.0
C 0.906156 1.551437 0.0
C 2.054848 0.76083 0.0
C 1.962284 -0.646558 0.0
C 0.723777 -1.28098 0.0
H 0.977635 2.641883 0.0
H 3.037546 1.238961 0.0
H 2.877029 -1.244853 0.0
H 0.65988 -2.372656 0.0
