25

O -1.091412 2.057636 1.513161
C -1.343774 0.658346 1.757804
C -0.355685 -0.194741 0.970022
O -0.508666 0.164489 -0.412612
C 0.530604 -0.277954 -1.348564
C 0.664285 -1.805129 -1.320611
C 0.003859 0.190463 -2.706045
C 1.869907 0.400073 -1.034373
C -1.247143 0.414524 3.25481
H -0.937097 2.108546 0.539934
H -2.36412 0.408111 1.408728
H 0.666967 0.01383 1.327511
H -0.574209 -1.266506 1.126618
H -0.309553 -2.283331 -1.500836
H 1.363013 -2.140491 -2.101467
H 1.054858 -2.162152 -0.356436
H -0.112208 1.283992 -2.718551
H 0.698404 -0.094109 -3.509707
H -0.976117 -0.262581 -2.913298
H 2.289291 0.06587 -0.075001
H 2.608301 0.160589 -1.814099
H 1.749738 1.492486 -0.9976
H -1.953438 1.064884 3.789546
H -1.492195 -0.630565 3.498715
H -0.233608 0.633718 3.622351
