20

C -2.67284 -1.206764 0.675436
C -1.604119 -0.558115 -0.176451
O -0.463341 -0.389744 0.552702
C 0.741522 0.276211 -0.03559
O -1.766506 -0.224636 -1.346209
C 1.263391 -0.536958 -1.222958
C 0.403835 1.719996 -0.416671
C 1.738216 0.238286 1.125198
H -2.249317 -1.974469 1.337854
H -3.442123 -1.638787 0.024012
H -3.14157 -0.440295 1.313448
H 2.210849 -0.100199 -1.574802
H 0.549019 -0.536186 -2.054049
H 1.46161 -1.577041 -0.923733
H -0.299204 1.758335 -1.256983
H 1.325765 2.24716 -0.706701
H -0.03469 2.252707 0.440383
H 2.69305 0.686816 0.813432
H 1.929486 -0.797166 1.442022
H 1.356966 0.80085 1.98966
