14

C -1.94873 0.017423 0.0
C -1.245217 -1.192147 0.0
C 0.150909 -1.192427 0.0
C 0.854354 0.023608 0.0
C 0.140231 1.239679 0.0
C -1.253135 1.233598 0.0
O 2.983736 1.139335 0.0
C 2.331561 0.120915 0.0
Cl 3.213152 -1.485526 0.0
H -3.041777 0.013369 0.0
H -1.785693 -2.141968 0.0
H 0.702386 -2.133164 0.0
H 0.698493 2.177626 0.0
H -1.800271 2.179679 0.0
