21

C -0.301712 -0.973357 0.113118
C 0.476633 -2.045055 -0.352733
C 1.838368 -1.899268 -0.634367
C 2.449221 -0.657186 -0.444999
C 1.685925 0.417207 0.020395
C 0.3164 0.287041 0.301038
C -1.767893 -1.191083 0.409934
C -0.45873 1.504162 0.762044
H -0.001112 -3.019563 -0.494756
H 2.41771 -2.753374 -0.995595
H 3.514268 -0.52562 -0.653754
H 2.165217 1.388885 0.176974
H -2.021218 -0.917609 1.447342
H -2.044001 -2.245433 0.268736
H -2.416627 -0.587294 -0.24558
C -1.083969 2.306635 -0.394571
H 0.215601 2.163994 1.331313
H -1.25302 1.205794 1.4648
H -1.781305 1.690908 -0.982731
H -0.307761 2.673638 -1.082935
H -1.641995 3.176578 -0.013673
