13

C -1.650395 -0.016279 0.0
C -0.92676 -1.21306 0.0
C 0.467508 -1.233641 0.0
C 1.15983 -0.015613 0.0
C 0.45947 1.197489 0.0
C -0.938141 1.18623 0.0
O 2.538891 -0.079532 0.0
H 1.018483 -2.175055 0.0
H -2.740771 -0.030321 0.0
Cl -1.795217 -2.739535 0.0
H 1.005539 2.145761 0.0
H -1.482782 2.133713 0.0
H 2.884345 0.839845 0.0
