33

C -4.408286 0.001719 0.975162
C -4.411791 -1.11039 0.223949
C -3.212421 -1.826009 -0.268469
O -2.03989 -1.225441 0.094846
C -0.830269 -1.907969 -0.365311
C 0.396192 -1.104321 0.075356
C 0.393481 0.286506 -0.595465
C 1.284299 1.365858 0.035356
C 1.043447 2.761395 -0.556489
C 1.929433 3.846486 0.063608
C 2.906765 -1.625734 0.606689
C 1.650803 -1.966436 -0.205607
O -3.276526 -2.855452 -0.939806
H -5.34359 0.466246 1.29867
H -3.476311 0.475603 1.291376
H -5.348068 -1.580488 -0.086901
H -0.884719 -2.01171 -1.459965
H -0.826645 -2.919186 0.065386
H 0.311604 -0.967182 1.169081
H -0.644032 0.660354 -0.586713
H 0.657905 0.165107 -1.66191
H 2.349002 1.110637 -0.084749
H 1.104581 1.397748 1.124914
H -0.019097 3.032345 -0.425232
H 1.210845 2.72834 -1.647481
H 2.998656 3.621851 -0.082725
H 1.756767 3.932817 1.148878
H 1.73365 4.833189 -0.384246
H 3.336242 -0.652246 0.334348
H 3.688025 -2.384009 0.442606
H 2.690252 -1.604411 1.686747
H 1.39657 -3.021283 -0.001833
H 1.883126 -1.923932 -1.284069
