20

C -1.255226 0.361964 -0.970093
C -0.380217 -0.126333 0.200513
C 1.014365 -0.581774 -0.307219
C 1.898392 0.481714 -0.969525
C -0.242292 0.998353 1.245568
C -1.063398 -1.339771 0.862717
H -2.255844 0.656894 -0.615614
H -1.389103 -0.429339 -1.725359
H -0.816118 1.237111 -1.472758
H 0.863301 -1.413273 -1.017723
H 1.562364 -1.015736 0.547672
H 2.84808 0.036847 -1.303986
H 2.150085 1.300065 -0.277737
H 1.420513 0.927457 -1.855424
H -1.225462 1.268001 1.662888
H 0.190364 1.912116 0.810421
H 0.401009 0.686945 2.084564
H -0.480646 -1.704495 1.723846
H -1.168944 -2.175618 0.152115
H -2.071222 -1.081128 1.225133
