22

C 0.247677 -0.035972 -3.776807
C -0.572232 -0.0014 -2.48289
C 0.295866 -0.055722 -1.224857
N -0.515782 -0.058932 0.0
C 0.295866 -0.055722 1.224857
C -0.572232 -0.0014 2.48289
C 0.247677 -0.035972 3.776807
H 0.946597 0.814257 -3.835205
H -0.403651 0.008561 -4.663091
H 0.843603 -0.960061 -3.849267
H -1.281056 -0.844681 -2.459306
H -1.186224 0.916456 -2.460678
H 1.029832 0.781637 -1.243972
H 0.892384 -0.983973 -1.230995
H -1.10981 0.780726 0.0
H 1.029832 0.781637 1.243972
H 0.892384 -0.983973 1.230995
H -1.281056 -0.844681 2.459306
H -1.186224 0.916456 2.460678
H -0.403651 0.008561 4.663091
H 0.946597 0.814257 3.835205
H 0.843603 -0.960061 3.849267
