60

C 1.086374 1.265751 -0.257285
C 1.049572 -0.142896 -0.195221
C 2.34934 2.043076 -0.047879
C -0.114501 1.975682 -0.391473
C 2.298505 -0.965174 -0.215038
C -0.189121 -0.798211 -0.245037
O 2.402104 3.109698 -0.900304
O 3.178353 1.808566 0.822985
C -1.341147 1.312128 -0.445964
O 2.150882 -2.087776 0.551058
O 3.293743 -0.709182 -0.882615
C -1.379106 -0.08012 -0.369859
C 3.50171 4.04869 -0.677074
C 3.256759 -3.04318 0.496802
C 3.250377 5.247568 -1.575378
C 2.791761 -4.308501 1.197999
C 4.260341 6.383216 -1.373718
C 3.824816 -5.439261 1.151376
C 3.938144 7.606948 -2.24024
C 3.318161 -6.725738 1.813712
C 4.874817 8.798663 -2.025237
C 4.303471 -7.896423 1.746328
C 4.500499 10.02369 -2.867791
C 3.766574 -9.18149 2.386025
C 5.417213 11.227425 -2.641812
C 4.737943 -10.361343 2.306159
H -0.078291 3.065325 -0.436435
H -0.208709 -1.888184 -0.202323
H -2.265518 1.886621 -0.543776
H -2.333492 -0.610964 -0.413634
H 3.515309 4.324496 0.387551
H 4.449608 3.539407 -0.903881
H 3.515987 -3.221785 -0.556945
H 4.132769 -2.589059 0.983273
H 3.255798 4.920998 -2.628376
H 2.233703 5.62532 -1.375609
H 2.540968 -4.071427 2.245263
H 1.854302 -4.647199 0.725999
H 4.270593 6.68357 -0.310983
H 5.280391 6.02644 -1.598685
H 4.092802 -5.651942 0.101206
H 4.759748 -5.114164 1.640521
H 3.955657 7.31347 -3.305035
H 2.899292 7.923762 -2.037544
H 3.066726 -6.519065 2.869378
H 2.368058 -7.025114 1.335863
H 4.872112 9.079394 -0.956477
H 5.913783 8.500343 -2.253537
H 4.563487 -8.095808 0.691022
H 5.250962 -7.610019 2.237122
H 4.512203 9.745729 -3.93634
H 3.456785 10.307856 -2.645715
H 3.513087 -8.983734 3.442363
H 2.814583 -9.456159 1.898635
H 5.402562 11.550289 -1.588513
H 6.46204 10.989608 -2.897881
H 5.112838 12.088179 -3.256976
H 4.985064 -10.608197 1.261174
H 5.684825 -10.139601 2.823687
H 4.311382 -11.26519 2.768089
