18

C -0.525386 0.248764 -0.012341
C 0.134566 -0.994368 0.037039
C 1.525281 -1.077852 0.060697
C 2.289401 0.09758 0.037781
C 1.651393 1.347524 -0.014035
C 0.262941 1.415934 -0.037748
C -2.86014 -0.871749 -0.021401
C -2.008071 0.38477 -0.047825
O -2.544171 1.502197 -0.098307
O 3.659483 -0.032647 0.065818
H -0.443106 -1.920548 0.057128
H 2.031906 -2.044808 0.096784
H 2.250405 2.263935 -0.037156
H -0.247478 2.380684 -0.079171
H -2.655078 -1.510637 -0.895869
H -3.917233 -0.580424 -0.028425
H -2.65696 -1.476258 0.877756
H 4.052246 0.867903 0.039277
