50

C 0.363592 2.240882 -0.2547
C 0.586819 0.811044 -0.852977
C 1.028106 3.56101 -0.757398
C -0.557491 -0.040028 -0.208421
C 0.475656 0.805998 -2.387742
C 1.95433 0.241209 -0.430647
C 0.421036 4.062733 -2.083899
C 0.709613 4.621956 0.321273
C 2.558811 3.478074 -0.896956
C -0.482618 -1.584048 -0.123559
C -1.677144 -2.097323 0.729423
C -0.44697 -2.299929 -1.482931
C -1.387612 -3.164343 1.820218
C -0.472887 -2.578529 2.912188
C -2.732003 -3.55468 2.463044
C -0.736066 -4.428057 1.23148
H -0.724695 2.430687 -0.282155
H 0.607984 2.152759 0.818976
H -0.66006 0.309681 0.833125
H -1.506726 0.23869 -0.701901
H 1.290374 1.380521 -2.850808
H 0.53507 -0.212418 -2.791754
H -0.477626 1.242135 -2.722306
H 2.049342 0.20404 0.666314
H 2.090934 -0.78203 -0.811158
H 2.787223 0.842033 -0.816539
H -0.678112 4.103544 -2.026698
H 0.778475 5.081698 -2.302793
H 0.690371 3.432405 -2.940718
H 1.156614 4.351775 1.290781
H 1.105525 5.607343 0.029003
H -0.376978 4.726396 0.469552
H 2.868012 2.80732 -1.711146
H 2.97343 4.474251 -1.120987
H 3.02999 3.124953 0.032905
H 0.447618 -1.838022 0.4109
H -2.152843 -1.243116 1.241369
H -2.451974 -2.496893 0.051482
H 0.490539 -2.121091 -2.028014
H -0.541768 -3.388079 -1.356598
H -1.278159 -1.968504 -2.125376
H -0.924766 -1.683521 3.368738
H -0.302595 -3.31285 3.715251
H 0.512329 -2.291588 2.514963
H -3.418338 -3.990394 1.719831
H -2.587919 -4.297785 3.263453
H -3.230082 -2.677823 2.90678
H 0.244451 -4.214659 0.780432
H -0.5776 -5.182441 2.01858
H -1.373213 -4.884986 0.45812
