26

C -3.538693 0.076133 -0.050457
C -2.161543 0.722002 -0.268565
C -1.035276 -0.251681 0.130024
C 0.386633 0.20414 -0.22354
C 1.455674 -0.860905 0.056928
C 2.880915 -0.414725 -0.293759
C 3.939024 -1.492943 -0.03471
C -2.073029 2.066586 0.469443
H -3.633537 -0.869805 -0.607267
H -4.351851 0.7422 -0.379643
H -3.705842 -0.148545 1.016616
H -2.05427 0.925435 -1.350159
H -1.225324 -1.222594 -0.360874
H -1.097592 -0.447413 1.216486
H 0.639359 1.121304 0.334673
H 0.423769 0.47964 -1.293185
H 1.212036 -1.777852 -0.509746
H 1.417619 -1.148348 1.123263
H 3.130379 0.492077 0.284708
H 2.915224 -0.113839 -1.355624
H 4.949378 -1.140101 -0.294496
H 3.740489 -2.399329 -0.63021
H 3.953697 -1.793175 1.025912
H -2.889311 2.739532 0.163027
H -1.125136 2.588346 0.270503
H -2.15279 1.923859 1.560652
