24

C -1.071472 0.622111 -0.002485
C -0.468729 -0.644822 -0.058817
C 0.922843 -0.826313 -0.025965
C 1.732685 0.316261 0.067685
C 1.155606 1.588339 0.127204
C -0.23369 1.74431 0.092507
C -2.587909 0.722767 -0.051855
C 1.48844 -2.236232 -0.093186
H -1.112569 -1.529784 -0.130847
H 2.819994 0.219463 0.099984
H 1.79758 2.470995 0.200796
H -0.661805 2.747925 0.137644
H -3.001925 0.121779 0.776886
H -2.936952 0.221245 -0.971536
H 1.145198 -2.702655 -1.033456
H 1.021492 -2.833401 0.709361
C -3.186162 2.129932 0.005671
C 3.009908 -2.371006 0.003772
H -4.284497 2.078554 -0.039074
H -2.850579 2.75268 -0.83803
H -2.917513 2.651707 0.937307
H 3.303969 -3.42984 -0.054926
H 3.394729 -1.973198 0.955985
H 3.521358 -1.840817 -0.814625
