26

C -2.322646 0.24978 0.342109
C -0.946567 0.932181 0.427755
C 0.226083 0.018284 -0.032771
C 1.600666 0.682122 0.212339
C 2.757069 0.041778 -0.565607
C -1.00785 2.254744 -0.357025
C -0.417817 -2.50482 -0.24194
C 0.192011 -1.392063 0.619524
H -2.577605 -0.006302 -0.699455
H -3.10793 0.925423 0.714876
H -2.378673 -0.671109 0.938982
H -0.766341 1.178448 1.491383
H 0.118744 -0.11424 -1.126826
H 1.820184 0.653376 1.294533
H 1.559821 1.747787 -0.056652
H 3.707922 0.555923 -0.356804
H 2.582548 0.098404 -1.652093
H 2.898105 -1.020009 -0.310125
H -1.15361 2.06462 -1.433431
H -0.100076 2.863634 -0.245445
H -1.853533 2.871013 -0.014738
H -0.359705 -3.479318 0.268556
H 0.121591 -2.601452 -1.19796
H -1.475169 -2.319006 -0.481813
H 1.219797 -1.693297 0.876829
H -0.337019 -1.3359 1.585799
