36

C -6.653716 -0.664983 0.005857
C -5.820063 -1.913082 0.049172
C -4.477053 -1.983609 0.060826
C -3.507541 -0.822248 0.024143
C -2.035352 -1.259016 -0.003112
C -1.048767 -0.086177 -0.023178
C 0.423947 -0.517027 -0.037214
C 1.410237 0.657478 -0.035323
C 2.883895 0.229493 -0.040783
C 3.867385 1.40589 -0.014314
C 5.34307 0.984327 -0.010648
C 6.313068 2.169627 0.038922
H -7.33558 -0.6733 -0.861965
H -6.045183 0.24879 -0.051816
H -7.294573 -0.587002 0.901729
H -6.378652 -2.856204 0.079712
H -4.025145 -2.982169 0.09759
H -3.671264 -0.168956 0.900441
H -3.712401 -0.188316 -0.857353
H -1.863567 -1.899089 -0.886411
H -1.831989 -1.895387 0.876283
H -1.230548 0.557223 0.856335
H -1.251473 0.546487 -0.905955
H 0.610105 -1.148998 -0.92398
H 0.622147 -1.160587 0.838536
H 1.219706 1.291088 0.849425
H 1.215079 1.29946 -0.912943
H 3.079593 -0.391287 -0.933565
H 3.075299 -0.424693 0.828615
H 3.666869 2.028905 0.876089
H 3.679831 2.058819 -0.8857
H 5.549601 0.375341 -0.908264
H 5.528453 0.321631 0.852601
H 6.174419 2.836427 -0.827883
H 7.362603 1.836049 0.037126
H 6.157557 2.775097 0.947002
