51

C 0.0 -10.38783 -0.574379
C 0.0 -9.152623 0.332651
C 0.0 -7.828444 -0.440748
C 0.0 -6.579963 0.451371
C 0.0 -5.269062 -0.344358
C 0.0 -4.000427 0.519819
C 0.0 -2.719813 -0.327365
C 0.0 -1.429042 0.496803
S 0.0 0.0 -0.658983
C 0.0 1.429042 0.496803
C 0.0 2.719813 -0.327365
C 0.0 4.000427 0.519819
C 0.0 5.269062 -0.344358
C 0.0 6.579963 0.451371
C 0.0 7.828444 -0.440748
C 0.0 9.152623 0.332651
C 0.0 10.38783 -0.574379
H -0.887874 -10.405621 -1.227554
H 0.0 -11.32009 0.011588
H 0.887874 -10.405621 -1.227554
H 0.880309 -9.185424 0.998241
H -0.880309 -9.185424 0.998241
H -0.880041 -7.798226 -1.108325
H 0.880041 -7.798226 -1.108325
H 0.880931 -6.605827 1.117559
H -0.880931 -6.605827 1.117559
H -0.879863 -5.25027 -1.01193
H 0.879863 -5.25027 -1.01193
H 0.88185 -4.006307 1.184606
H -0.88185 -4.006307 1.184606
H -0.881142 -2.720364 -0.990862
H 0.881142 -2.720364 -0.990862
H 0.892662 -1.374149 1.140319
H -0.892662 -1.374149 1.140319
H 0.892662 1.374149 1.140319
H -0.892662 1.374149 1.140319
H -0.881142 2.720364 -0.990862
H 0.881142 2.720364 -0.990862
H 0.88185 4.006307 1.184606
H -0.88185 4.006307 1.184606
H -0.879863 5.25027 -1.01193
H 0.879863 5.25027 -1.01193
H 0.880931 6.605827 1.117559
H -0.880931 6.605827 1.117559
H -0.880041 7.798226 -1.108325
H 0.880041 7.798226 -1.108325
H 0.880309 9.185424 0.998241
H -0.880309 9.185424 0.998241
H 0.0 11.32009 0.011588
H -0.887874 10.405621 -1.227554
H 0.887874 10.405621 -1.227554
