10

C -0.195828 1.22007 -0.011708
C 1.210487 1.412068 -0.133481
N 2.369303 1.595342 -0.226933
C -0.786126 0.00665 0.072439
C -0.10242 -1.318389 0.034867
H -0.799412 2.132023 0.020421
H -1.877267 -0.00585 0.166433
H 0.988651 -1.225272 -0.055913
H -0.476097 -1.918982 -0.812596
H -0.331291 -1.897659 0.946471
