14

O -2.770487 -0.345175 0.03784
C -1.603896 0.498563 -0.008843
C -0.29962 -0.29893 0.010297
N 0.864165 0.5966 -0.047126
C 2.136729 -0.135351 -0.012328
H -2.734376 -0.83557 0.887393
H -1.605732 1.234624 0.813757
H -1.694295 1.059324 -0.951599
H -0.321131 -1.051848 -0.80606
H -0.238996 -0.865282 0.956776
H 0.820054 1.117404 -0.932157
H 2.972677 0.577606 -0.062492
H 2.256533 -0.877572 -0.829855
H 2.218375 -0.674392 0.944398
