14

C -1.16758 0.473755 0.0
C -0.493273 -0.766358 0.0
C 0.918665 -0.724294 0.0
C 1.62139 0.479326 0.0
C 0.930273 1.694535 0.0
C -0.469554 1.679957 0.0
N -1.181113 -1.958009 0.0
Cl 1.810726 -2.245398 0.0
H -2.261522 0.47355 0.0
H 2.712833 0.454407 0.0
H 1.482752 2.636429 0.0
H -1.029265 2.618648 0.0
H -2.195758 -1.974803 0.0
H -0.678574 -2.841746 0.0
