53

C -8.989123 0.671947 -0.302144
C -7.659297 0.570041 0.455625
C -6.426314 0.480412 -0.453014
C -5.105366 0.381367 0.320261
C -3.858714 0.2884 -0.569674
C -2.552859 0.192547 0.229255
C -1.286657 0.096286 -0.632036
C 0.0 0.0 0.197692
C 1.286657 -0.096286 -0.632036
C 2.552859 -0.192547 0.229255
C 3.858714 -0.2884 -0.569674
C 5.105366 -0.381367 0.320261
H -7.686545 -0.312909 1.119749
H -7.55586 1.443438 1.125299
H -6.3959 1.36264 -1.117631
H -6.527557 -0.394829 -1.120237
H -5.139403 -0.498696 0.987638
H -5.010464 1.257583 0.987255
H -3.816528 1.168598 -1.236339
H -3.948713 -0.589151 -1.235383
H -2.600092 -0.684755 0.899612
H -2.472997 1.071504 0.894613
H -1.227441 0.975303 -1.299134
H -1.362515 -0.782271 -1.298156
H -0.063414 -0.878137 0.865796
H 0.063414 0.878137 0.865796
H 1.362515 0.782271 -1.298156
H 1.227441 -0.975303 -1.299134
H 2.472997 -1.071504 0.894613
H 2.600092 0.684755 0.899612
H 3.948713 0.589151 -1.235383
H 3.816528 -1.168598 -1.236339
H 5.010464 -1.257583 0.987255
H 5.139403 0.498696 0.987638
C 6.426314 -0.480412 -0.453014
C 7.659297 -0.570041 0.455625
C 8.989123 -0.671947 -0.302144
C 10.209837 -0.757463 0.62045
H 6.527557 0.394829 -1.120237
H 6.3959 -1.36264 -1.117631
H 7.55586 -1.443438 1.125299
H 7.686545 0.312909 1.119749
H 9.09518 0.200742 -0.970695
H 8.964675 -1.555832 -0.963517
H 10.284723 0.131677 1.268414
H 11.146898 -0.830272 0.046227
H 10.154165 -1.640209 1.278919
C -10.209837 0.757463 0.62045
H -9.09518 -0.200742 -0.970695
H -8.964675 1.555832 -0.963517
H -11.146898 0.830272 0.046227
H -10.154165 1.640209 1.278919
H -10.284723 -0.131677 1.268414
