22

C -0.960944 0.254813 -1.490131
C -0.254407 0.619499 -0.15839
C -2.033165 -0.788098 -1.25644
C -1.499467 1.485788 -2.216618
C 0.57812 -0.493107 0.491581
O -3.225397 -0.644447 -1.505641
C 1.37233 -0.008431 1.710514
C 2.208388 -1.109439 2.367008
H -0.200508 -0.246811 -2.121883
H -1.006756 0.994073 0.557354
H 0.408216 1.47636 -0.368725
H -1.671993 -1.750236 -0.816541
H -2.250718 2.006596 -1.605799
H -1.98244 1.211629 -3.164716
H -0.683297 2.191257 -2.432393
H 1.278271 -0.90804 -0.255546
H -0.066244 -1.334229 0.797746
H 0.675969 0.419412 2.452222
H 2.031187 0.822325 1.403284
H 1.576049 -1.944031 2.708447
H 2.759012 -0.730539 3.241079
H 2.947793 -1.524343 1.66359
