39

C -7.299044 0.216472 -0.081076
C -5.95526 0.950545 -0.037758
C -4.742548 0.011274 -0.061435
C -3.393726 0.739316 -0.025233
C -2.181322 -0.200006 -0.050659
C -0.832939 0.529423 -0.019886
C 0.379504 -0.409832 -0.044672
C 1.727776 0.319894 -0.013928
C 2.939287 -0.620718 -0.032749
C 4.287659 0.109633 0.004305
C 5.494985 -0.839893 -0.007029
C 6.830911 -0.098767 0.040082
S 8.319977 -1.185073 -0.028852
H -7.391554 -0.395162 -0.993553
H -8.144969 0.921227 -0.067055
H -7.415731 -0.459863 0.781637
H -5.908766 1.581714 0.867004
H -5.891 1.647106 -0.892339
H -4.791428 -0.622619 -0.965292
H -4.80541 -0.68495 0.794654
H -3.344898 1.373407 0.878303
H -3.333334 1.434987 -0.881774
H -2.231334 -0.836173 -0.952621
H -2.239787 -0.89363 0.807579
H -0.782652 1.165887 0.881874
H -0.774721 1.222791 -0.87835
H 0.329716 -1.047066 -0.945829
H 0.32119 -1.102332 0.814456
H 1.776334 0.958936 0.886067
H 1.788132 1.010401 -0.874474
H 2.894023 -1.258557 -0.933401
H 2.877299 -1.311793 0.827111
H 4.331183 0.749262 0.903915
H 4.353897 0.797802 -0.857571
H 5.467731 -1.47833 -0.905014
H 5.431513 -1.525136 0.856042
H 6.905448 0.544749 0.929329
H 6.946397 0.555811 -0.837915
H 8.057461 -1.870739 1.116107
