20

C -0.343889 0.945181 -0.305524
C -0.455283 -0.575092 -0.048503
C 1.115199 1.362087 -0.543759
C -1.20784 1.327924 -1.506583
O -0.890146 1.661439 0.826608
C 0.248455 -1.093522 1.192923
C 0.660823 -2.545431 1.185271
O 0.460205 -0.377359 2.181219
H -1.524077 -0.826964 0.084297
H -0.11905 -1.150072 -0.927256
H 1.539632 0.863946 -1.430008
H 1.163176 2.448453 -0.704818
H 1.745216 1.123583 0.325169
H -2.253636 1.027557 -1.34623
H -1.184697 2.418252 -1.647046
H -0.84158 0.854036 -2.429414
H -0.422774 1.267622 1.607621
H -0.16717 -3.184953 0.839961
H 1.483095 -2.687786 0.463893
H 0.994341 -2.858904 2.182175
