29

C -5.897584 -0.289978 0.00916
C -4.678914 0.599187 -0.018465
O -3.527279 -0.140004 -0.027247
C -2.290809 0.642717 0.003775
O -4.70333 1.82492 -0.010107
C -1.117732 -0.322858 -0.032096
C 0.229577 0.41064 0.008152
C 1.438696 -0.53289 -0.032746
C 2.786655 0.196644 0.013849
C 4.00011 -0.741205 -0.028201
C 5.34231 -0.004508 0.026319
H -5.714266 -1.252632 -0.486621
H -6.7392 0.234331 -0.46095
H -6.165274 -0.493773 1.058784
H -2.291127 1.25881 0.915262
H -2.288588 1.327225 -0.857048
H -1.184112 -0.939182 -0.943879
H -1.193056 -1.016442 0.821941
H 0.282969 1.031176 0.92003
H 0.290007 1.115106 -0.840371
H 1.387805 -1.151426 -0.946309
H 1.37776 -1.239994 0.813832
H 2.836203 0.813694 0.928903
H 2.847089 0.907165 -0.830284
H 3.953344 -1.355801 -0.943968
H 3.938162 -1.451895 0.814622
H 5.455542 0.688132 -0.823658
H 6.189671 -0.706928 -0.002602
H 5.43537 0.589771 0.949921
