28

C -2.019473 -2.385266 -0.278076
C -1.296339 -3.597474 -0.174801
C 0.076282 -3.567997 -0.020663
C 0.782848 -2.335494 0.046528
C 0.046617 -1.098975 -0.027397
C -1.363484 -1.169291 -0.208524
C 0.763428 0.145051 0.047539
C 2.150696 0.119834 0.143676
C 2.869765 -1.095971 0.203277
C 2.198 -2.30151 0.167135
H -3.10276 -2.409743 -0.424733
H -1.822991 -4.554258 -0.22715
H 0.646539 -4.499159 0.044715
H -1.931919 -0.242921 -0.306362
C 0.062878 1.457812 0.027045
H 2.693468 1.066818 0.206734
H 3.95939 -1.072227 0.289461
H 2.744964 -3.247103 0.224336
C 0.39199 2.429141 -0.936427
C -0.235887 3.678863 -0.940993
C -1.203512 3.984527 0.021933
C -1.534948 3.031653 0.99198
C -0.909135 1.781716 0.99344
H 1.136845 2.190569 -1.700197
H 0.030001 4.415248 -1.704227
H -1.692549 4.962229 0.019513
H -2.27974 3.264473 1.757753
H -1.160974 1.049452 1.764484
