11

N -1.576878 -0.796893 0.20583
C -0.672666 0.244367 -0.341403
C 0.746102 -0.246984 -0.35193
C 1.777484 0.387752 0.222139
H -2.540911 -0.439311 0.179598
H -1.36078 -0.917851 1.204443
H -0.722627 1.21289 0.193137
H -0.993505 0.431794 -1.380651
H 0.906418 -1.207097 -0.855149
H 2.795672 -0.007544 0.175676
H 1.641692 1.338878 0.74831
