38

C 7.041163 6.3785 -0.325868
C 6.864677 7.902154 -0.590672
C 8.095981 6.108731 0.74366
C 5.728454 5.663523 -0.020988
C 8.082663 8.572593 -1.179928
C 9.390738 5.711756 0.381144
C 7.811088 6.277624 2.107611
C 4.598714 6.314398 0.494213
C 5.64209 4.280368 -0.25229
C 9.026251 9.219818 -0.368792
C 8.299963 8.55699 -2.566952
C 10.376573 5.497038 1.34934
C 8.793348 6.068577 3.078379
C 3.422716 5.607694 0.771572
C 4.472453 3.571404 0.021507
C 10.153655 9.830967 -0.92389
C 9.424434 9.167415 -3.12763
C 10.082235 5.676836 2.702255
C 3.354084 4.234202 0.536277
C 10.356391 9.807416 -2.306061
H 7.425836 5.94139 -1.263192
H 6.587868 8.401915 0.350657
H 6.013736 8.026573 -1.279845
H 9.630702 5.575015 -0.677097
H 6.801046 6.563537 2.414944
H 4.623238 7.390774 0.678412
H 6.51248 3.753166 -0.654087
H 8.871659 9.246258 0.7134
H 7.567521 8.068616 -3.217722
H 11.379757 5.188339 1.041845
H 8.548509 6.204076 4.135757
H 2.55492 6.140215 1.170462
H 4.432533 2.495523 -0.171096
H 10.876287 10.331347 -0.273063
H 9.570832 9.148617 -4.211403
H 10.850415 5.506635 3.461425
H 2.433738 3.683325 0.747809
H 11.235698 10.28887 -2.74267
