17

C -0.492029 0.014523 -1.195664
C 0.903725 0.000536 -1.205707
C 1.631917 -0.008175 0.0
C 0.903725 0.000536 1.205707
C -0.492029 0.014523 1.195664
C -1.228458 0.020043 0.0
C -2.737691 -0.001837 0.0
N 3.018404 -0.018847 0.0
H -1.021746 0.02342 -2.153824
H 1.438774 0.001938 -2.160609
H 1.438774 0.001938 2.160609
H -1.021746 0.02342 2.153824
H -3.150638 0.500192 -0.888711
H -3.150638 0.500192 0.888711
H -3.13033 -1.034511 0.0
H 3.544994 -0.018945 0.867674
H 3.544994 -0.018945 -0.867674
