19

C -1.059683 0.341485 0.0
C -0.360659 -0.891984 0.0
C 1.044519 -0.908896 0.0
C 1.79076 0.280846 0.0
C 1.102376 1.509374 0.0
C -0.293393 1.512783 0.0
C -2.56676 0.378051 0.0
N -1.062905 -2.088412 0.0
N 3.177854 0.244994 0.0
H 1.565439 -1.872522 0.0
H 1.657896 2.451111 0.0
H -0.81467 2.475518 0.0
H -3.000105 -0.116371 0.88932
H -3.000105 -0.116371 -0.88932
H -2.930638 1.415433 0.0
H -2.07628 -2.103305 0.0
H -0.579211 -2.979915 0.0
H 3.720812 1.102096 0.0
H 3.684753 -0.633915 0.0
