13

C 0.0 0.671272 -1.195061
C 0.0 -0.671272 -1.195061
C 0.0 -1.250575 0.199424
C 0.0 0.0 1.129976
C 0.0 1.250575 0.199424
H 0.0 1.296652 -2.092265
H 0.0 -1.296652 -2.092265
H 0.880786 -1.894662 0.367274
H -0.880786 -1.894662 0.367274
H 0.880161 0.0 1.788366
H -0.880161 0.0 1.788366
H 0.880786 1.894662 0.367274
H -0.880786 1.894662 0.367274
