21

C -3.285472 1.22188 -0.014481
C -2.450698 -0.061162 -0.066154
C -0.943281 0.189357 0.079473
C -0.109273 -1.068048 0.037268
C 1.23469 -1.117871 0.000886
C 2.160252 0.075919 -0.010886
C 3.646664 -0.29995 -0.005567
H -4.360016 1.009711 -0.125912
H -2.998507 1.918667 -0.819285
H -3.147069 1.750122 0.943197
H -2.637317 -0.587794 -1.017956
H -2.781022 -0.750049 0.730451
H -0.755531 0.729066 1.027881
H -0.611646 0.885386 -0.713597
H -0.658124 -2.01753 0.035634
H 1.711379 -2.105116 -0.026153
H 1.941183 0.725191 0.856466
H 1.943774 0.700779 -0.89756
H 3.906094 -0.909694 -0.88603
H 3.9069 -0.884342 0.891479
H 4.287019 0.595477 -0.019154
