12

O -1.807605 0.885813 0.347077
C -1.220186 -0.350441 0.175165
O -1.876817 -1.387038 0.213538
C 0.251131 -0.242563 -0.052635
C 0.893195 1.118586 -0.094665
C 0.931143 -1.394075 -0.21092
H -2.766002 0.68398 0.488258
H 0.454664 1.743341 -0.888612
H 1.973742 1.032731 -0.275631
H 0.740922 1.661361 0.851545
H 2.010825 -1.396058 -0.38276
H 0.414988 -2.355636 -0.170359
