19

C -0.012488 1.387793 -0.045034
C 0.027504 -0.033524 -0.107768
C 1.198991 2.106234 0.025943
C -1.318858 2.048336 -0.056826
C 1.269496 -0.690137 -0.096969
O -1.097213 -0.784493 -0.178051
C 2.419862 1.447323 0.03551
O -1.265813 3.404912 0.003001
O -2.409929 1.43984 -0.116266
C 2.446612 0.044186 -0.026694
C -2.557998 4.069584 -0.008613
H 1.159267 3.195304 0.073649
H 1.279993 -1.781016 -0.144743
H -1.857379 -0.110426 -0.17106
H 3.350408 2.015974 0.091221
H 3.405793 -0.481188 -0.019148
H -3.101622 3.833962 -0.93235
H -3.157977 3.757178 0.855588
H -2.329647 5.139156 0.044609
