20

C -1.401708 -0.392501 -0.786352
C -0.486507 -1.455022 -0.130569
C 0.873338 -0.955445 -0.590057
C 0.826975 0.394231 -0.645979
C -0.58717 0.795697 -0.22733
C 1.927602 1.371811 -0.900161
C -0.681766 0.508366 1.311089
C -0.619722 -1.049078 1.379393
H -2.443526 -0.422385 -0.42681
H -1.386023 -0.440736 -1.885054
H -0.718621 -2.508261 -0.337983
H 1.758688 -1.583524 -0.717447
H -0.90392 1.806802 -0.519642
H 1.677795 2.055432 -1.7312
H 2.87321 0.866372 -1.148264
H 2.107921 2.011055 -0.016907
H -1.632362 0.889755 1.715899
H 0.132279 0.99464 1.867662
H -1.541605 -1.470064 1.811297
H 0.225121 -1.417145 1.978416
