24

C -0.039086 0.073178 -1.549782
C -1.267809 0.086313 -0.672827
C -1.267809 0.086313 0.672827
C -0.039086 0.073178 1.549782
C -0.345582 -0.048912 -3.048829
C 0.911488 -0.062605 -3.923917
C -0.345582 -0.048912 3.048829
C 0.911488 -0.062605 3.923917
H 0.625889 -0.756881 -1.244896
H 0.554087 0.991325 -1.374278
H -2.236836 0.096793 -1.186187
H -2.236836 0.096793 1.186187
H 0.554087 0.991325 1.374278
H 0.625889 -0.756881 1.244896
H -0.998205 0.78758 -3.35325
H -0.929813 -0.969017 -3.224239
H 0.658028 -0.138019 -4.992813
H 1.56334 -0.916391 -3.675645
H 1.5045 0.856635 -3.78615
H -0.929813 -0.969017 3.224239
H -0.998205 0.78758 3.35325
H 1.56334 -0.916391 3.675645
H 0.658028 -0.138019 4.992813
H 1.5045 0.856635 3.78615
