24

C -3.43043 -1.326659 0.0
C -2.773678 -2.583867 0.0
C -1.393143 -2.647451 0.0
C -0.607544 -1.461841 0.0
C -1.272587 -0.186932 0.0
C -2.695386 -0.156629 0.0
C -0.487505 0.994614 0.0
C 0.900916 0.964906 0.0
C 1.541157 -0.303467 0.0
C 0.810575 -1.47841 0.0
H -4.522998 -1.287124 0.0
H -3.364652 -3.503624 0.0
H -0.885159 -3.616611 0.0
H -3.199238 0.814577 0.0
H -1.005985 1.959905 0.0
C 1.679175 2.272379 0.0
H 2.631787 -0.356748 0.0
H 1.326298 -2.443501 0.0
C 3.206474 2.167646 0.0
H 1.360833 2.863742 0.875915
H 1.360833 2.863742 -0.875915
H 3.58261 1.639579 -0.889815
H 3.58261 1.639579 0.889815
H 3.655039 3.172195 0.0
