20

C -0.056692 1.40034 0.012084
C -0.022772 -0.017648 0.002906
C 1.263254 1.91865 0.00104
C -1.222367 2.175514 0.029514
C 1.397953 -0.389368 -0.015239
C -1.233514 -0.692851 0.01263
C 2.156564 0.753316 -0.016346
C 1.416444 3.296563 0.00853
C -2.451519 1.452173 0.039682
C -1.0332 3.588633 0.035627
C -2.439507 0.063954 0.031639
C 0.251709 4.115282 0.025037
H 1.783357 -1.409668 -0.02656
H -1.284434 -1.785735 0.006506
H 3.246528 0.794412 -0.028619
H 2.403638 3.767921 0.001602
H -3.405027 1.988328 0.054432
H -1.897409 4.259107 0.048572
H -3.392653 -0.472534 0.03977
H 0.378645 5.201611 0.031194
