25

C -5.546599 1.045571 0.0
C -4.540715 0.360231 0.0
C -3.316303 -0.435317 0.0
C -2.028432 0.417212 0.0
C -0.755081 -0.436528 0.0
C 0.534775 0.394595 0.0
C 1.812489 -0.4545 0.0
C 3.104552 0.373243 0.0
C 4.375174 -0.483526 0.0
H -6.44006 1.640986 0.0
H -3.318006 -1.101268 0.881144
H -3.318006 -1.101268 -0.881144
H -2.03947 1.079025 -0.88115
H -2.03947 1.079025 0.88115
H -0.75994 -1.102694 0.881266
H -0.75994 -1.102694 -0.881266
H 0.538985 1.061004 -0.880817
H 0.538985 1.061004 0.880817
H 1.808162 -1.121551 0.880756
H 1.808162 -1.121551 -0.880756
H 3.109695 1.039168 -0.880462
H 3.109695 1.039168 0.880462
H 5.282603 0.140254 0.0
H 4.419372 -1.134792 0.888219
H 4.419372 -1.134792 -0.888219
