21

C -0.569107 -0.092169 0.043511
C 0.308127 -1.254347 0.526092
C 1.231443 -1.553926 -0.65476
C 2.098022 -0.526587 -0.763061
C 1.753762 0.473448 0.33218
C 0.375632 1.102892 -0.081817
C -2.758998 0.996527 -0.639066
C -1.892928 -0.139464 -0.174251
C 1.290612 -0.491304 1.452281
H -0.242136 -2.104839 0.946772
H 1.09408 -2.386126 -1.348027
H 2.815943 -0.350558 -1.566782
H 2.527895 1.207989 0.588597
H 0.402439 1.530161 -1.09568
H 0.090678 1.91103 0.612801
H -3.247023 0.757559 -1.600923
H -2.190988 1.929022 -0.773727
H -3.572985 1.198571 0.078962
H -2.407174 -1.093213 -6.1e-05
H 2.102662 -1.132351 1.825481
H 0.790044 0.017684 2.291478
