54

C -10.412055 1.373653 0.017677
C -9.193901 0.448979 -0.077511
C -7.853748 1.19154 0.003091
C -6.630742 0.270537 -0.086781
C -5.288204 1.009208 -0.013593
C -4.071764 0.078828 -0.097461
C -2.722042 0.804627 -0.031203
C -1.517873 -0.142855 -0.101133
C -0.156778 0.561169 -0.035233
C 1.029242 -0.410303 -0.086252
C 2.404158 0.266152 -0.018563
C 3.569707 -0.730309 -0.051313
C 4.957089 -0.079897 0.018139
C 6.105232 -1.096273 -0.001612
C 7.500903 -0.463152 0.068722
C 8.637258 -1.493742 0.054479
C 10.026395 -0.861595 0.127203
O 11.098529 -1.82653 0.064052
H -10.420146 1.929479 0.969708
H -11.354832 0.807625 -0.044067
H -9.237503 -0.118801 -1.023513
H -9.24003 -0.305174 0.727996
H -7.811672 1.76503 0.946736
H -7.806279 1.942837 -0.806243
H -6.677868 -0.305111 -1.028736
H -6.677792 -0.478622 0.724382
H -5.240899 1.589428 0.925427
H -5.236588 1.753275 -0.829032
H -4.124976 -0.504546 -1.034249
H -4.124364 -0.663231 0.719838
H -2.669398 1.395536 0.900805
H -2.659895 1.537822 -0.855694
H -1.575875 -0.735375 -1.031835
H -1.585762 -0.87555 0.723526
H -0.099063 1.16117 0.890631
H -0.075658 1.283639 -0.867482
H 0.965605 -1.012973 -1.010038
H 0.940361 -1.131306 0.746682
H 2.468197 0.873772 0.901948
H 2.506149 0.978565 -0.857059
H 3.500057 -1.341334 -0.969192
H 3.460815 -1.440271 0.788581
H 5.027611 0.533392 0.934482
H 5.075901 0.624324 -0.824928
H 6.031291 -1.712675 -0.915334
H 5.982848 -1.797695 0.843347
H 7.574502 0.154257 0.981922
H 7.628583 0.234769 -0.777982
H 8.579482 -2.112179 -0.856863
H 8.513236 -2.18726 0.907192
H 10.120014 -0.24147 1.039323
H 10.191012 -0.195601 -0.73267
H 10.98762 -2.421806 0.837002
H -10.416087 2.116024 -0.797317
