24

C -3.804389 0.177593 -0.708356
C -2.682202 0.751777 -1.315576
C -1.433007 0.677133 -0.690869
C -1.296909 0.045123 0.558595
C -2.437963 -0.505954 1.171823
C -3.678508 -0.453523 0.537088
C 0.0 0.0 1.306236
C 1.433007 -0.677133 -0.690869
C 2.682202 -0.751777 -1.315576
C 3.804389 -0.177593 -0.708356
C 3.678508 0.453523 0.537088
C 2.437963 0.505954 1.171823
C 1.296909 -0.045123 0.558595
O 0.0 0.0 2.548502
H -4.778512 0.223759 -1.202611
H -2.778971 1.259517 -2.278896
H -0.563259 1.136889 -1.165125
H -2.324344 -0.973926 2.15221
H -4.554511 -0.900975 1.014349
H 0.563259 -1.136889 -1.165125
H 2.778971 -1.259517 -2.278896
H 4.778512 -0.223759 -1.202611
H 4.554511 0.900975 1.014349
H 2.324344 0.973926 2.15221
