35

C -6.817213 -0.046948 -0.036604
C -5.509435 0.751392 -0.02579
C -4.254948 -0.131513 -0.022827
C -2.942778 0.662412 -0.01687
C -1.691125 -0.224671 -0.018649
C -0.401662 0.583849 -0.019443
O 0.720181 -0.313351 -0.023866
C 1.964883 0.390735 -0.029623
C 3.083582 -0.639466 -0.029647
O 4.328799 0.07023 -0.03148
C 5.4556 -0.811489 -0.014747
C 6.725313 0.034686 -0.006669
O 7.909608 -0.784001 -0.022904
H -6.885958 -0.690841 -0.928619
H -7.695022 0.617727 -0.037669
H -6.895201 -0.699995 0.848074
H -5.489846 1.414216 0.857032
H -5.480331 1.420797 -0.903412
H -4.275582 -0.796771 -0.904597
H -4.281784 -0.800031 0.85634
H -2.923455 1.325299 0.866592
H -2.920318 1.332077 -0.895139
H -1.696445 -0.884407 -0.902179
H -1.694614 -0.886151 0.863589
H -0.352031 1.238891 0.873393
H -0.355808 1.242828 -0.909513
H 2.051907 1.041508 0.86163
H 2.04684 1.035846 -0.925376
H 3.002903 -1.28788 -0.922324
H 3.005231 -1.284757 0.865721
H 5.45182 -1.475539 -0.899702
H 5.423075 -1.45831 0.887184
H 6.719808 0.717919 0.860476
H 6.769955 0.649116 -0.915576
H 7.904051 -1.313407 0.803193
