14

C -1.922451 -0.168429 0.0
C -1.070471 -1.277299 0.0
C 0.316085 -1.123422 0.0
C 0.861138 0.169943 0.0
C 0.011943 1.294294 0.0
C -1.370791 1.117718 0.0
Cl -1.755331 -2.890802 0.0
Cl 3.380166 -1.050644 0.0
C 2.321425 0.436303 0.0
O 2.843633 1.526635 0.0
H -3.004215 -0.31525 0.0
H 0.967577 -1.996726 0.0
H 0.454739 2.291108 0.0
H -2.033448 1.986571 0.0
