24

C 0.367963 0.196407 -0.320635
C 0.980399 -1.049752 0.34915
C 2.48656 -0.951296 0.028068
C 2.788251 0.573052 -0.092122
C 1.414872 1.282398 0.006413
C -1.063142 0.552174 0.09821
C -2.129015 -0.477146 -0.302599
C -3.549982 -0.063577 0.096951
H 0.378848 0.030651 -1.415415
H 0.81545 -0.988435 1.440276
H 0.535454 -1.997012 0.008343
H 2.699841 -1.458226 -0.926834
H 3.10685 -1.447271 0.79008
H 3.276305 0.795118 -1.053881
H 3.477547 0.920076 0.692717
H 1.337688 2.160462 -0.654284
H 1.243743 1.642962 1.035957
H -1.33244 1.529666 -0.34216
H -1.089676 0.699565 1.194378
H -1.893114 -1.453231 0.154215
H -2.086647 -0.634944 -1.395003
H -4.291645 -0.817413 -0.212577
H -3.835915 0.894483 -0.368414
H -3.638195 0.06129 1.189165
