42

C -8.400062 0.353194 -0.642738
C -7.425636 0.527251 0.261585
C -6.163709 -0.281968 0.355508
H -9.29218 0.986135 -0.657368
H -8.344063 -0.434454 -1.402451
H -7.530909 1.335041 0.997285
H -6.176832 -1.080473 -0.405595
H -6.132796 -0.78924 1.338157
C -4.882815 0.561362 0.203304
C -3.599344 -0.271661 0.306527
H -4.873747 1.352411 0.974459
H -4.910135 1.083633 -0.768431
H -3.621487 -1.067629 -0.459832
H -3.581372 -0.793683 1.280327
C -2.30969 0.543365 0.148308
H -2.271221 1.323486 0.930118
H -2.332695 1.082868 -0.815637
C -1.040216 -0.315474 0.218688
H -1.092723 -1.100724 -0.557283
H -1.017657 -0.851034 1.185006
C 0.265873 0.470667 0.051868
H 0.33427 1.23999 0.8422
H 0.243564 1.022681 -0.905046
C 1.514373 -0.420204 0.095641
H 1.437733 -1.187831 -0.695678
H 1.528972 -0.976368 1.050425
C 2.838753 0.33666 -0.061857
H 2.931392 1.084022 0.746878
H 2.823984 0.913315 -1.004199
C 4.066774 -0.583436 -0.048405
H 3.971104 -1.324605 -0.862656
H 4.071085 -1.168823 0.888807
C 5.406098 0.150129 -0.187664
H 5.516526 0.872019 0.641966
H 5.400152 0.754779 -1.112618
C 6.619858 -0.788808 -0.205663
H 6.512791 -1.502287 -1.041815
H 6.617492 -1.401115 0.713303
C 7.961233 -0.058161 -0.325669
H 8.009565 0.545245 -1.246949
H 8.805221 -0.765413 -0.347023
H 8.122475 0.625139 0.524215
