23

C -0.053295 1.470193 0.007052
C -0.032489 0.003882 -0.001179
C 1.280744 1.939036 -0.002217
C -1.119118 2.376899 0.022454
C 1.314277 -0.428391 -0.013616
C -1.073507 -0.930896 0.003265
C 2.237762 0.768713 -0.016757
C 1.549389 3.305582 0.002769
C -0.842358 3.746665 0.027756
C 1.619079 -1.78745 -0.020156
C -0.760558 -2.292965 -0.003283
C 0.479649 4.209296 0.018595
C 0.573882 -2.719634 -0.014334
H -2.15433 2.025418 0.029876
H -2.117538 -0.606457 0.011874
H 2.894681 0.782525 -0.904486
H 2.910315 0.774326 0.859196
H 2.579748 3.673359 -0.004524
H -1.665884 4.465471 0.038577
H 2.659165 -2.126822 -0.029039
H -1.565097 -3.033153 0.000132
H 0.676328 5.284777 0.022766
H 0.800154 -3.789375 -0.018721
