23

C -1.757384 -1.466337 -0.04179
C -0.549743 -0.865308 0.688287
C 0.267035 0.177681 -0.119555
C 1.781663 0.026845 0.139051
C 2.417161 -1.207768 -0.509961
C -1.630753 1.977904 -0.129685
C -0.164782 1.633758 0.157105
H -2.288633 -2.189147 0.597531
H -1.440887 -2.002338 -0.950944
H -2.484241 -0.701503 -0.35219
H 0.113941 -1.695432 0.980578
H -0.87751 -0.408907 1.638467
H 0.09674 -0.022865 -1.194562
H 1.960095 0.008166 1.228892
H 2.300921 0.926717 -0.232456
H 3.48608 -1.286058 -0.258162
H 2.336779 -1.16173 -1.608075
H 1.935653 -2.143321 -0.183924
H -2.321494 1.450211 0.54507
H -1.911335 1.720349 -1.163781
H -1.810172 3.056164 0.001974
H 0.063048 1.872614 1.211976
H 0.477818 2.300304 -0.443847
