19

C -1.657369 -0.146057 -0.014749
C -1.002818 -1.386943 -0.019638
C 0.403842 -1.379461 -0.016967
C 1.126367 -0.188309 -0.006492
C 0.471785 1.059884 0.001229
C -0.936067 1.049857 -0.003429
C 1.181271 2.345522 0.009165
C 2.512402 2.552559 0.014775
H -2.751153 -0.113575 -0.021419
C -1.77671 -2.681242 0.002137
H 0.943503 -2.331748 -0.025643
H 2.218112 -0.228609 -0.009464
H -1.472913 2.00356 -0.002895
H 0.526022 3.224654 0.011397
H 2.925995 3.563285 0.02087
H 3.238104 1.734985 0.013391
H -1.225053 -3.492461 -0.496471
H -2.753575 -2.576566 -0.493903
H -1.971745 -3.009337 1.038103
