19

C -3.13143 1.19756 0.003365
C -1.786577 1.145164 -0.032545
C -1.156909 -0.213023 -0.046519
O 0.212016 -0.124003 -0.00401
C 0.905575 -1.408006 0.008367
C 2.382569 -1.132064 0.043992
C 3.333389 -2.075035 0.077161
C -0.911497 2.370639 -0.052787
O -1.758265 -1.283831 -0.087509
H -3.662038 2.153582 0.021258
H -3.725007 0.280967 0.016363
H 0.607492 -1.976956 -0.885368
H 0.565548 -1.97889 0.885913
H 2.664164 -0.074151 0.046285
H 4.392497 -1.807168 0.101947
H 3.099606 -3.145034 0.078325
H -1.524696 3.282833 -0.056875
H -0.260829 2.384689 -0.941461
H -0.245608 2.402727 0.824095
