12

O -2.695039 0.102457 -0.355714
C -1.491796 0.145446 -0.593019
C -0.603452 -1.024398 -0.387703
C 0.631707 -1.080777 0.146723
C 1.49447 0.019854 0.635993
O 2.71263 0.015945 0.484698
O -0.865944 1.240625 -1.117645
O 0.824982 1.006275 1.304899
H -1.080244 -1.964052 -0.680805
H 1.125182 -2.054643 0.204808
H -1.574408 1.928582 -1.195646
H 1.521912 1.664685 1.553411
