16

O -3.14069 0.052135 -0.138234
C -1.839622 0.671757 -0.08377
C -0.690524 -0.335507 -0.087271
C 0.690524 0.335507 -0.087271
C 1.839622 -0.671757 -0.08377
O 3.14069 -0.052135 -0.138234
H -3.221729 -0.511494 0.661257
H -1.765624 1.337806 0.79692
H -1.791056 1.310802 -0.977455
H -0.798115 -0.987428 -0.969777
H -0.784273 -0.990705 0.798329
H 0.784273 0.990705 0.798329
H 0.798115 0.987428 -0.969777
H 1.791056 -1.310802 -0.977455
H 1.765624 -1.337806 0.79692
H 3.221729 0.511494 0.661257
