16

C -2.656474 -0.103831 0.056592
C -1.331083 0.61308 -0.133526
C -0.078828 -0.247942 -0.047595
C 1.240608 0.523406 -0.034636
C 2.46437 -0.393334 0.057356
O -1.281706 1.827503 -0.336041
H -2.649189 -1.11284 -0.384597
H -3.473617 0.493696 -0.367814
H -2.843015 -0.225572 1.137751
H -0.112683 -0.951214 -0.901979
H -0.170117 -0.90062 0.841346
H 1.233678 1.230901 0.809539
H 1.298578 1.146754 -0.940118
H 3.398601 0.188752 0.042193
H 2.502524 -1.103008 -0.785536
H 2.458352 -0.985731 0.987065
