30

C -4.634715 0.049101 -0.952673
C -3.748677 0.48701 -0.040862
C -2.50927 -0.311279 0.29966
C -1.180512 0.357939 -0.103485
C 0.042668 -0.517129 0.201103
C 1.376791 0.124886 -0.198761
C 2.596742 -0.755762 0.10228
C 3.933529 -0.126456 -0.309399
C 5.144339 -1.015143 -0.003963
C -3.950862 1.784163 0.702008
H -5.534279 0.619779 -1.20327
H -4.488775 -0.897945 -1.481378
H -2.572579 -1.300075 -0.183009
H -2.49034 -0.49715 1.389877
H -1.071832 1.323076 0.41977
H -1.208556 0.593458 -1.181216
H -0.065835 -1.48632 -0.318181
H 0.060234 -0.754665 1.280052
H 1.488562 1.092045 0.323792
H 1.358146 0.365591 -1.276874
H 2.479222 -1.72749 -0.410697
H 2.620703 -0.987755 1.182412
H 4.052976 0.844277 0.203126
H 3.910171 0.103683 -1.389012
H 6.08586 -0.537569 -0.31741
H 5.07296 -1.983054 -0.526873
H 5.223053 -1.228262 1.074606
H -4.895778 2.270071 0.420892
H -3.132025 2.496192 0.504473
H -3.961923 1.614785 1.793013
