31

C -0.776326 0.856494 0.80673
C -0.470197 -0.634445 0.544474
C 1.064596 -0.822984 0.467817
C 1.725666 0.137842 -0.534653
C 1.353534 1.631694 -0.384642
C -0.178109 1.786259 -0.259367
C 2.103406 2.357831 0.746613
O 1.673505 -0.756317 1.784761
C -1.223622 -1.23209 -0.681199
H -0.840866 -0.756604 -1.600771
C -0.991659 -2.748053 -0.814149
H -0.37819 1.129711 1.799913
H -1.859814 1.020491 0.890938
H -0.803485 -1.209534 1.426607
H 1.289636 -1.850132 0.154311
H 1.430331 -0.187206 -1.547777
H 2.817866 0.005773 -0.476778
H 1.663065 2.127557 -1.320937
H -0.643023 1.5691 -1.235884
H -0.431749 2.834712 -0.030091
H 3.18706 2.17276 0.697167
H 1.770162 2.060055 1.754632
H 1.945642 3.445828 0.678897
H 1.536705 0.150951 2.123199
C -2.736294 -0.958374 -0.618798
H 0.056649 -3.006979 -1.020186
H -1.592201 -3.160273 -1.639637
H -1.288662 -3.27603 0.107099
H -3.169842 -1.327467 0.325653
H -3.255799 -1.471416 -1.442681
H -2.977983 0.11085 -0.701263
