16

O -0.927089 3.510647 -0.019143
C 0.107342 2.509648 0.059585
C -0.460927 1.09386 -0.021404
S 0.905759 -0.134768 0.019362
C -0.0778 -1.682816 -0.113409
C 0.852435 -2.894236 -0.108605
H -1.515978 3.375228 0.754915
H 0.705141 2.63448 0.979883
H 0.767019 2.703025 -0.796791
H -1.035415 0.977402 -0.952728
H -1.134612 0.905304 0.8315
H -0.665874 -1.644677 -1.043117
H -0.778809 -1.724678 0.734595
H 0.26481 -3.821836 -0.191118
H 1.43874 -2.94488 0.821029
H 1.555261 -2.861703 -0.954553
