23

C -1.91511 0.216623 -0.937568
C -1.160895 0.499066 0.372022
C 0.173168 -0.289845 0.518276
C 1.176707 -0.020077 -0.621821
C 2.595109 -0.543709 -0.360439
C -0.971138 2.011734 0.571316
C -0.082858 -1.793383 0.713438
H -1.358496 0.582054 -1.814869
H -2.891835 0.725041 -0.938569
H -2.106975 -0.857132 -1.08351
H -1.80497 0.148679 1.198946
H 0.638873 0.082628 1.450327
H 1.236273 1.065883 -0.79949
H 0.796497 -0.462379 -1.558363
H 3.278864 -0.246684 -1.170954
H 2.629038 -1.641623 -0.292621
H 3.003861 -0.139457 0.580578
H -1.944113 2.526577 0.607927
H -0.395737 2.468653 -0.249548
H -0.442704 2.23022 1.513085
H 0.83597 -2.330358 0.990459
H -0.472332 -2.263359 -0.204058
H -0.817195 -1.969153 1.515435
