30

C -5.918246 1.049984 -0.003348
C -4.715199 0.152489 0.021655
C -3.437369 0.563676 0.00999
C -2.219546 -0.336347 0.033811
C -0.887963 0.426105 -0.006023
C 0.340031 -0.491492 0.029286
C 1.677195 0.25743 -0.031063
C 2.902515 -0.664435 0.017119
C 4.242253 0.07899 -0.059444
C 5.459995 -0.849356 0.002272
H -6.546383 0.856344 -0.890714
H -5.629347 2.112159 -0.016524
H -6.562503 0.882602 0.877571
H -4.920325 -0.926524 0.048754
H -3.243477 1.644512 -0.0206
H -2.257237 -1.034959 -0.821025
H -2.244859 -0.973106 0.936095
H -0.846013 1.129269 0.844731
H -0.854648 1.050403 -0.916496
H 0.285622 -1.204238 -0.813348
H 0.307133 -1.107649 0.945646
H 1.730089 0.977761 0.805114
H 1.713424 0.864154 -0.953517
H 2.844436 -1.392257 -0.812545
H 2.871673 -1.26407 0.94459
H 4.297583 0.81295 0.763716
H 4.276936 0.66921 -0.991733
H 6.402925 -0.283694 -0.057785
H 5.453961 -1.574325 -0.827959
H 5.477343 -1.425585 0.941774
