39

C -4.001862 1.008329 -1.322704
C -3.725159 0.806661 0.181659
C -2.266332 1.131905 0.465853
O -1.471586 0.031709 0.285244
C -0.037357 0.276779 0.455084
C 0.729672 -1.047461 0.30469
C 2.265018 -0.760243 0.510209
O 2.958228 -1.991652 0.845007
C -4.654399 1.661451 1.05171
O -1.833773 2.233557 0.788153
C 0.45582 -1.722505 -1.051436
C 0.247503 -1.987607 1.435785
C 3.090508 -0.178624 -0.663781
C 4.542156 0.061382 -0.2061
C 2.55204 1.115189 -1.293555
H -3.845644 2.059913 -1.609237
H -5.044793 0.74278 -1.553853
H -3.343685 0.379959 -1.941572
H -3.87521 -0.258478 0.416711
H 0.12066 0.709894 1.453768
H 0.256825 1.02992 -0.280956
H 2.352683 -0.061493 1.367448
H 2.578314 -2.314603 1.68716
H -5.705374 1.401538 0.852071
H -4.512435 2.730633 0.84038
H -4.460335 1.504393 2.123118
H -0.586938 -2.064365 -1.111958
H 1.108497 -2.598881 -1.175523
H 0.630977 -1.043721 -1.898557
H 0.629163 -3.009718 1.301907
H -0.849074 -2.046139 1.439807
H 0.55677 -1.620816 2.430603
H 3.110243 -0.957388 -1.445161
H 4.988083 -0.841504 0.228136
H 4.584549 0.86253 0.551417
H 5.164185 0.379488 -1.056895
H 1.592587 0.980301 -1.810412
H 3.268492 1.479191 -2.045702
H 2.430978 1.917693 -0.548515
