28

C -4.076455 0.143523 0.0
C -3.370301 0.058213 -1.203468
C -1.981085 -0.107357 -1.199309
C -1.249064 -0.189933 0.0
C -1.981085 -0.107357 1.199309
C -3.370301 0.058213 1.203468
C 0.267018 -0.419219 0.0
C 0.971081 0.124319 -1.26289
C 2.483077 -0.146351 -1.260278
C 3.16218 0.400997 0.0
C 2.483077 -0.146351 1.260278
C 0.971081 0.124319 1.26289
H -5.161128 0.280438 0.0
H -3.900702 0.120763 -2.15792
H -1.466106 -0.168479 -2.159309
H -1.466106 -0.168479 2.159309
H -3.900702 0.120763 2.15792
H 0.418146 -1.51718 0.0
H 0.534858 -0.323604 -2.167888
H 0.788639 1.211188 -1.333144
H 2.937985 0.290256 -2.164421
H 2.655473 -1.235939 -1.321185
H 3.097692 1.503913 0.0
H 4.235775 0.151444 0.0
H 2.937985 0.290256 2.164421
H 2.655473 -1.235939 1.321185
H 0.788639 1.211188 1.333144
H 0.534858 -0.323604 2.167888
