23

C 0.264326 -0.028445 -4.749942
O -0.52703 0.092527 -3.566434
C 0.265331 -0.053234 -2.383137
C -0.660431 0.097632 -1.186034
O 0.13041 -0.043215 0.0
C -0.660431 0.097632 1.186034
C 0.265331 -0.053234 2.383137
O -0.52703 0.092527 3.566434
C 0.264326 -0.028445 4.749942
H 1.049139 0.751683 -4.791118
H -0.414336 0.098558 -5.603639
H 0.746962 -1.022822 -4.812962
H 1.059153 0.717514 -2.347767
H 0.755001 -1.045325 -2.361346
H -1.451879 -0.674832 -1.220561
H -1.151441 1.088352 -1.211279
H -1.451879 -0.674832 1.220561
H -1.151441 1.088352 1.211279
H 1.059153 0.717514 2.347767
H 0.755001 -1.045325 2.361346
H -0.414336 0.098558 5.603639
H 1.049139 0.751683 4.791118
H 0.746962 -1.022822 4.812962
