11

C -1.122111 -0.465188 0.0
C -0.023313 0.583047 0.0
C 1.369215 -0.062823 0.0
H -1.102802 -1.100489 -0.893905
Br -2.940508 0.357445 0.0
H -1.102802 -1.100489 0.893905
H -0.14 1.232427 0.881653
H -0.14 1.232427 -0.881653
H 1.524752 -0.693433 -0.889942
H 1.524752 -0.693433 0.889942
H 2.152816 0.71051 0.0
