47

C -8.983674 0.210405 -0.153329
C -7.690679 1.032113 -0.10465
C -6.423658 0.167485 -0.088664
C -5.116353 0.969441 -0.04253
C -3.864384 0.083577 -0.021934
C -2.538154 0.853885 0.017122
C -1.314225 -0.070363 0.04347
C 0.039551 0.650086 0.066261
C 1.224218 -0.324059 0.088296
C 2.606623 0.339613 0.079464
C 3.751826 -0.680477 0.083237
C 5.154573 -0.062456 0.041812
C 6.267586 -1.116745 0.032108
C 7.672757 -0.511638 -0.027906
C 8.781221 -1.550496 -0.093854
O 10.048635 -1.079923 0.200139
O 8.634086 -2.720415 -0.397137
H -9.022814 -0.421949 -1.055231
H -9.874361 0.857786 -0.162556
H -9.066709 -0.45723 0.719997
H -7.700678 1.681885 0.787673
H -7.656065 1.712755 -0.973082
H -6.418569 -0.483713 -0.981227
H -6.461722 -0.515832 0.778786
H -5.118534 1.625273 0.846329
H -5.072418 1.645298 -0.915361
H -3.872756 -0.573198 -0.910176
H -3.914232 -0.593813 0.849468
H -2.52111 1.516197 0.90096
H -2.47626 1.521108 -0.861308
H -1.349512 -0.73691 -0.836892
H -1.383054 -0.735985 0.922681
H 0.090089 1.316095 0.946153
H 0.120523 1.3088 -0.817049
H 1.14759 -1.00105 -0.781542
H 1.141407 -0.973478 0.978265
H 2.702804 1.007236 0.954507
H 2.696112 0.990502 -0.808844
H 3.632588 -1.360137 -0.779127
H 3.66519 -1.31933 0.980191
H 5.286058 0.608851 0.909518
H 5.245578 0.579605 -0.853036
H 6.140466 -1.79615 -0.824496
H 6.190715 -1.75133 0.929905
H 7.846298 0.156925 0.83368
H 7.774354 0.126241 -0.925279
H 9.979072 -0.124486 0.425184
