15

C -2.870804 -0.496267 -0.010014
C -1.6661 0.410275 -0.029537
O -0.502674 -0.314165 -0.029256
C 0.716659 0.489218 -0.005409
C 1.888033 -0.452271 -0.014714
C 3.170951 -0.07123 0.027444
O -1.702541 1.63504 -0.023064
H -2.671917 -1.452261 -0.512567
H -3.718433 0.018893 -0.479107
H -3.137845 -0.711965 1.037242
H 0.700531 1.126995 0.891514
H 0.712366 1.157535 -0.879955
H 1.634893 -1.516172 -0.062257
H 3.979564 -0.805615 0.015441
H 3.467319 0.98199 0.074238
