13

C -2.765213 0.037668 0.030013
C -1.321075 0.251574 0.00546
C -0.11651 0.440847 -0.01598
C 1.334456 0.630869 -0.039063
C 2.127391 -0.689491 0.00218
H -3.04238 -0.890247 -0.49803
H -3.302342 0.869234 -0.456633
H -3.142478 -0.042868 1.063308
H 1.631831 1.264263 0.815555
H 1.612527 1.199193 -0.94427
H 3.210363 -0.49013 -0.013091
H 1.880064 -1.321979 -0.863269
H 1.893364 -1.258934 0.913817
