16

C 7.799289 6.947075 0.046837
O 7.871167 8.193178 0.104281
O 8.939384 6.195954 -0.004249
C 6.552823 6.19241 0.028471
C 5.325123 6.912164 0.082155
C 6.52436 4.783373 -0.039302
O 5.282353 8.262934 0.14745
C 4.112043 6.203548 0.066421
C 5.32067 4.095452 -0.05367
C 4.115332 4.816446 0.000454
H 9.677369 6.857545 0.01697
H 7.470317 4.241584 -0.080417
H 6.255119 8.55618 0.146751
H 3.180076 6.770568 0.108621
H 5.309928 3.004798 -0.104942
H 3.161557 4.281668 -0.010469
