24

C -2.470279 -1.689859 -0.012895
C -1.759613 -2.912424 0.009007
C -0.377868 -2.901805 0.021483
C 0.3499 -1.68066 0.013508
C -0.368606 -0.432476 -0.008125
C -1.790392 -0.484394 -0.021474
C 0.363317 0.805643 -0.018684
C 1.748698 0.755791 -0.005727
C 2.455176 -0.472035 0.01724
C 1.771027 -1.668604 0.026469
H -3.563386 -1.696596 -0.022354
H -2.303139 -3.860989 0.014779
H 0.182747 -3.841223 0.037223
H -2.362324 0.444709 -0.038941
C -0.38744 2.124005 -0.045173
H 2.323009 1.684308 -0.011211
H 3.548212 -0.460855 0.027674
H 2.307081 -2.622005 0.042903
C 0.455691 3.399698 0.02301
H -1.110899 2.133691 0.78851
H -1.009001 2.15746 -0.957783
H -0.198471 4.283889 -0.007605
H 1.153851 3.480008 -0.824335
H 1.042708 3.454722 0.9525
