16

C 0.579001 0.822895 0.313053
C 0.40682 -0.692838 0.05172
C 2.00359 1.171692 0.240153
C -0.242102 1.719831 -0.634692
C -1.035947 -1.173572 0.303117
N 3.142997 1.441825 0.179266
C -1.177463 -2.619764 0.146484
N -1.284647 -3.779123 0.011244
H 0.265119 1.030431 1.352575
H 0.699537 -0.922938 -0.983681
H 1.091766 -1.253358 0.703857
H -1.318783 1.555565 -0.489851
H -0.035154 2.781382 -0.443174
H 0.00519 1.508531 -1.68501
H -1.742443 -0.688211 -0.388659
H -1.35748 -0.902349 1.323596
