19

C -1.593026 -0.041255 -1.211098
C -2.284763 -0.049858 0.0
C -1.593026 -0.041255 1.211098
C -0.187456 -0.04658 1.215423
C 0.532078 -0.079755 0.0
C -0.187456 -0.04658 -1.215423
N 0.508959 -0.09854 -2.448687
C 2.039662 -0.165189 0.0
N 0.508959 -0.09854 2.448687
H -2.136531 -0.025483 -2.160385
H -3.377806 -0.038147 0.0
H -2.136531 -0.025483 2.160385
H -0.079998 0.20899 -3.226549
H 1.362949 0.464541 -2.447851
H 2.406657 -0.709225 -0.882707
H 2.406657 -0.709225 0.882707
H 2.527721 0.828055 0.0
H 1.362949 0.464541 2.447851
H -0.079998 0.20899 3.226549
