24

C 0.0 0.0 0.265729
C -1.193866 0.0 1.018217
C -1.203354 0.0 2.409675
C 0.0 0.0 3.142357
C 1.203354 0.0 2.409675
C 1.193866 0.0 1.018217
N 0.0 0.0 4.524374
C 0.0 0.0 -4.073782
C -1.202798 0.0 -3.360067
C -1.200293 0.0 -1.964105
C 0.0 0.0 -1.219924
C 1.200293 0.0 -1.964105
C 1.202798 0.0 -3.360067
H -2.160467 0.0 0.512764
H -2.160431 0.0 2.940136
H 2.160431 0.0 2.940136
H 2.160467 0.0 0.512764
H 0.86838 0.0 5.050294
H -0.86838 0.0 5.050294
H 0.0 0.0 -5.166565
H -2.157977 0.0 -3.892639
H -2.162671 0.0 -1.45037
H 2.162671 0.0 -1.45037
H 2.157977 0.0 -3.892639
