32

C -1.281056 -0.579948 -0.09922
C -0.132444 -1.390023 -0.100327
C 1.137594 -0.817598 -0.098294
C 1.281005 0.580993 -0.096934
C 0.132392 1.391064 -0.097558
C -1.137647 0.81864 -0.097831
C -2.608702 -1.258375 -0.100468
O -3.647979 -0.367661 -0.071746
C -4.972906 -0.978089 -0.087344
C -5.992972 0.142458 0.070566
O -7.332716 -0.379703 0.037539
O -2.764706 -2.476545 -0.124277
C 2.608638 1.259454 -0.094857
O 2.764516 2.477753 -0.112197
O 3.64788 0.368591 -0.070852
C 4.972929 0.978827 -0.08456
C 5.992732 -0.143143 0.064846
O 7.332678 0.378531 0.033381
H -0.260075 -2.474216 -0.103809
H 2.023417 -1.454157 -0.099614
H 0.260048 2.475259 -0.097956
H -2.023479 1.455186 -0.098454
H -5.040459 -1.709642 0.732391
H -5.116532 -1.515082 -1.035193
H -5.92321 0.844893 -0.770592
H -5.803547 0.708692 0.999581
H -7.45012 -0.93091 0.841791
H 5.041941 1.704971 0.739871
H 5.11527 1.521889 -1.029162
H 5.92145 -0.840134 -0.780722
H 5.804161 -0.7154 0.990349
H 7.451898 0.923427 0.841655
