22

C -0.312341 1.719828 0.254756
C 0.115381 0.56926 -0.431903
C 1.472486 0.478615 -0.789586
C 2.373923 1.501499 -0.469515
C 1.931636 2.638248 0.214264
C 0.582988 2.744591 0.574584
C -0.844307 -0.561897 -0.720696
C -0.982008 -1.549755 0.460156
C -1.963165 -2.674851 0.161695
O 0.283586 -2.168978 0.780376
H -1.365386 1.815039 0.537206
H 1.822791 -0.401852 -1.33587
H 3.423765 1.411507 -0.761916
H 2.632296 3.441316 0.458559
H 0.226293 3.631241 1.105793
H -0.509781 -1.128592 -1.604438
H -1.843859 -0.157965 -0.950675
H -1.33889 -0.983404 1.341564
H -2.040948 -3.351988 1.024669
H -1.627157 -3.263397 -0.705867
H -2.964485 -2.272063 -0.054189
H 0.927183 -1.436401 0.911034
