29

O 0.023594 0.035442 -0.02315
C 0.048553 1.26334 -0.015997
O 1.210252 1.982227 0.150564
C 2.401125 1.167499 0.315938
C 3.597124 2.077317 0.410091
O 3.548128 2.783322 1.687494
C 4.607419 3.612405 1.921457
O 5.53772 3.771366 1.137771
C 4.46185 4.300753 3.264077
C 4.4439 5.834349 3.133493
O 3.391771 6.446941 3.298845
C 5.753037 6.508588 2.822163
C -1.127455 2.169709 -0.185111
C -0.9256 3.659863 -0.157149
C -2.326122 1.585954 -0.35686
H 2.292904 0.537665 1.209761
H 2.510446 0.502066 -0.553373
H 4.523327 1.487556 0.36138
H 3.61411 2.812654 -0.405342
H 3.537407 3.985411 3.760169
H 5.331685 4.001593 3.871056
H 6.211111 6.049858 1.931735
H 5.604266 7.585471 2.67817
H 6.459728 6.341132 3.652198
H -1.881843 4.18209 -0.298056
H -0.484733 3.989191 0.79616
H -0.232853 3.987368 -0.947792
H -2.416877 0.497823 -0.371189
H -3.231973 2.183046 -0.487502
