14

C -0.878102 0.041023 0.056754
C -0.205385 -1.181937 0.005988
C 1.186684 -1.159985 -0.081662
C 1.891176 0.048974 -0.12586
C 1.186118 1.256015 -0.076529
C -0.207276 1.264856 0.017401
Cl 2.066516 -2.672445 -0.135984
N -2.351701 0.030988 0.157434
H 2.980271 0.039211 -0.195656
H 1.733516 2.20064 -0.111873
H -0.778499 2.191566 0.059803
O -2.931117 1.13394 0.242177
O -2.926037 -1.077708 0.152039
H -0.766164 -2.115138 0.035969
