14

O -3.256541 -0.639054 -0.229069
N -2.81205 0.12312 0.624311
O -1.378317 0.43173 0.559532
C -0.721438 -0.230167 -0.556516
C 0.721438 0.230167 -0.556516
O 1.378317 -0.43173 0.559532
N 2.81205 -0.12312 0.624311
O 3.362178 -0.694099 1.54997
O 3.256541 0.639054 -0.229069
O -3.362178 0.694099 1.54997
H -1.196875 0.074269 -1.500927
H -0.797583 -1.320949 -0.4473
H 0.797583 1.320949 -0.4473
H 1.196875 -0.074269 -1.500927
