29

C -3.788261 -0.209484 -0.805039
C -2.602732 -0.073972 0.162769
C -1.277304 0.028836 -0.617805
C 0.0 0.0 0.233762
C 1.277304 -0.028836 -0.617805
C 2.602732 0.073972 0.162769
C 3.788261 0.209484 -0.805039
C -2.820791 1.107947 1.119469
C 2.820791 -1.107947 1.119469
H -3.658603 -1.06821 -1.482963
H -3.893733 0.693743 -1.429686
H -4.736945 -0.350195 -0.263064
H -2.557931 -0.996293 0.770822
H -1.290469 0.952222 -1.225774
H -1.236748 -0.804638 -1.341579
H -0.031119 -0.881407 0.89647
H 0.031119 0.881407 0.89647
H 1.236748 0.804638 -1.341579
H 1.290469 -0.952222 -1.225774
H 2.557931 0.996293 0.770822
H 4.736945 0.350195 -0.263064
H 3.658603 1.06821 -1.482963
H 3.893733 -0.693743 -1.429686
H -3.781614 1.014935 1.650089
H -2.838985 2.063337 0.567817
H -2.030295 1.177652 1.881593
H 2.030295 -1.177652 1.881593
H 3.781614 -1.014935 1.650089
H 2.838985 -2.063337 0.567817
