26

C -1.628811 -1.617218 0.851887
C -1.325351 -0.196486 0.356369
C 0.011708 0.081481 -0.389272
C 1.25584 0.051765 0.54655
C 1.807029 -1.303 1.015196
C 0.189359 -0.903294 -1.560795
C -0.24956 2.698164 -0.068674
C -0.082782 1.504887 -1.018002
H -1.555222 -2.366077 0.049333
H -2.657738 -1.663337 1.241515
H -0.963821 -1.935086 1.666313
H -1.394935 0.491648 1.214798
H -2.14194 0.100727 -0.325708
H 1.037152 0.665471 1.436053
H 2.073382 0.576519 0.020782
H 2.731122 -1.14817 1.59399
H 2.062418 -1.962626 0.172463
H 1.107817 -1.848854 1.662624
H 1.106741 -0.677918 -2.128238
H -0.658338 -0.834594 -2.261498
H 0.256797 -1.948389 -1.228776
H -1.174298 2.635212 0.523965
H -0.298985 3.634859 -0.644629
H 0.592143 2.794996 0.6336
H 0.823917 1.665617 -1.627021
H -0.923646 1.503705 -1.732826
