24

C 0.0 -1.234894 -0.698538
C 0.0 0.0 -1.361885
C 0.0 1.234894 -0.698538
C 0.0 1.235779 0.71183
C 0.0 0.0 1.375289
C 0.0 -1.235779 0.71183
C 0.0 -2.506965 -1.518123
C 0.0 -2.514311 1.519255
C 0.0 2.514311 1.519255
C 0.0 2.506965 -1.518123
H 0.0 0.0 -2.458137
H 0.0 0.0 2.470498
H 0.885202 -2.557843 -2.173151
H -0.885202 -2.557843 -2.173151
H 0.0 -3.411395 -0.896197
H 0.886409 -3.135565 1.309392
H -0.886409 -3.135565 1.309392
H 0.0 -2.294813 2.596407
H -0.886409 3.135565 1.309392
H 0.886409 3.135565 1.309392
H 0.0 2.294813 2.596407
H -0.885202 2.557843 -2.173151
H 0.885202 2.557843 -2.173151
H 0.0 3.411395 -0.896197
