16

C -1.842149 0.505243 -0.084987
C -1.210955 -0.743247 -0.120938
C 0.187893 -0.834917 -0.046411
C 0.930588 0.351539 0.059005
C 0.295976 1.598938 0.096195
C -1.100101 1.683155 0.023901
O 1.005551 2.782993 0.199731
C 0.880949 -2.175794 -0.048453
H -2.932292 0.564157 -0.147156
H -1.808079 -1.654718 -0.212122
H 2.024706 0.303582 0.11064
H -1.581917 2.663067 0.049658
H 1.960067 2.556974 0.246845
H 1.888743 -2.113383 -0.486343
H 0.307644 -2.922927 -0.617819
H 0.993377 -2.564663 0.978255
