18

C -2.806212 -0.660269 -0.374192
C -1.793582 -0.007927 0.214863
C -0.429521 -0.579795 0.477286
C 0.723482 0.096403 -0.309032
C 2.030175 -0.68423 -0.109074
C 0.905156 1.573525 0.067234
H -3.775936 -0.183404 -0.542245
H -2.704711 -1.699074 -0.70727
H -1.959032 1.028696 0.530037
H -0.437859 -1.656812 0.241095
H -0.201535 -0.497706 1.557047
H 0.456806 0.047825 -1.379524
H 2.856729 -0.22687 -0.675644
H 1.932343 -1.729478 -0.442541
H 2.325717 -0.698474 0.9537
H -0.007573 2.162286 -0.109419
H 1.711681 2.034225 -0.52431
H 1.173872 1.681078 1.131989
