22

C -1.364885 -0.324399 -0.686769
C -0.674261 -1.623323 -0.242783
C 0.832824 -1.584611 -0.535545
C 1.488724 -0.329469 0.064259
C 0.778368 0.94402 -0.406499
C -0.723924 0.941773 -0.074322
O 1.365895 2.141563 0.163656
C -1.02105 1.090215 1.42589
H -2.436418 -0.352389 -0.429588
H -1.314083 -0.253698 -1.787911
H -0.834042 -1.782979 0.836944
H -1.137551 -2.485898 -0.749096
H 0.991566 -1.589616 -1.628894
H 1.326075 -2.490681 -0.148539
H 2.553648 -0.283225 -0.223743
H 1.465175 -0.371244 1.165093
H 0.867224 0.998487 -1.50955
H -1.15937 1.820688 -0.579456
H 2.313298 2.13695 -0.092074
H -0.629375 0.252852 2.022385
H -2.108522 1.130974 1.593899
H -0.579315 2.014012 1.822645
