17

C -2.208483 -0.845706 0.0
C -1.506089 -2.058674 0.0
C -0.107397 -2.05463 0.0
C 0.588023 -0.842066 0.0
C -0.106252 0.381337 0.0
C -1.513694 0.362632 0.0
C 0.591791 1.70592 0.0
C 2.108149 1.737886 0.0
O -0.055724 2.76083 0.0
H -3.301606 -0.846733 0.0
H -2.049996 -3.007196 0.0
H 0.444208 -2.998371 0.0
H 1.679594 -0.85444 0.0
H -2.038659 1.32046 0.0
H 2.5188 1.227707 -0.88641
H 2.5188 1.227707 0.88641
H 2.438535 2.783336 0.0
