33

C -2.639851 -3.245354 0.070513
C -2.021731 -4.517434 0.050144
C -0.643188 -4.610137 0.016141
C 0.17316 -3.446155 0.002509
C -0.450539 -2.14777 0.021969
C -1.872127 -2.093578 0.057058
C 0.369914 -0.966219 0.006159
C 1.747835 -1.11999 -0.024083
C 2.36131 -2.396825 -0.042789
C 1.591134 -3.540199 -0.031645
H -3.730412 -3.171571 0.098769
H -2.634301 -5.422969 0.062004
H -0.155701 -5.589481 0.001395
H -2.371053 -1.123287 0.072624
C -0.284793 0.401993 0.019543
H 2.390277 -0.237306 -0.036668
H 3.452218 -2.465553 -0.069044
H 2.055639 -4.530196 -0.045514
H -0.935287 0.474206 0.910207
C 0.642477 1.622159 -0.008038
C -0.128573 2.948604 0.001397
C 0.775596 4.187435 -0.037622
C -0.00027 5.508404 -0.035709
H -0.97617 0.468381 -0.840275
H 1.284053 1.583883 -0.904856
H 1.324028 1.593779 0.859119
H -0.769273 2.994351 0.9002
H -0.81941 2.975885 -0.860208
H 1.418443 4.14006 -0.933855
H 1.462298 4.163507 0.826304
H -0.670393 5.580577 -0.908
H 0.678412 6.37484 -0.065798
H -0.623722 5.605964 0.86805
