48

C -9.675749 0.457743 -0.700961
C -8.7077 0.634514 0.209539
C -7.456083 -0.186492 0.329771
H -10.559598 1.101035 -0.733158
H -9.622889 -0.342156 -1.447586
H -8.812597 1.453043 0.933137
H -7.468318 -0.996063 -0.419187
H -7.442683 -0.68074 1.319285
C -6.164998 0.640993 0.182134
C -4.890221 -0.199798 0.318969
H -6.160028 1.4461 0.938337
H -6.173131 1.146384 -0.798599
H -4.899939 -0.999723 -0.44328
H -4.897221 -0.716848 1.295355
C -3.593659 0.608274 0.185291
H -3.565722 1.386873 0.968952
H -3.597727 1.150728 -0.777104
C -2.327801 -0.253639 0.274332
H -2.362176 -1.027681 -0.513735
H -2.328087 -0.80359 1.232615
C -1.01881 0.535358 0.148165
H -0.964351 1.285955 0.957254
H -1.026805 1.111107 -0.794678
C 0.231029 -0.352964 0.1884
H 0.169403 -1.098966 -0.624594
H 0.233513 -0.935938 1.126895
C 1.554051 0.413269 0.069078
H 1.636495 1.134376 0.902292
H 1.544242 1.021106 -0.853386
C 2.786472 -0.500196 0.06064
H 2.697368 -1.217667 -0.77519
H 2.790897 -1.11376 0.979466
C 4.122423 0.243813 -0.053585
H 4.229837 0.937038 0.800158
H 4.111944 0.880572 -0.956419
C 5.337879 -0.690521 -0.106147
H 5.22495 -1.383504 -0.959501
H 5.345109 -1.328731 0.795854
C 6.683078 0.036372 -0.218898
H 6.806232 0.714491 0.645019
H 6.674908 0.68859 -1.11087
C 7.889376 -0.908374 -0.29423
H 7.763697 -1.588355 -1.155143
H 7.898555 -1.556945 0.599358
C 9.232561 -0.180706 -0.408837
H 9.27296 0.447974 -1.313262
H 10.073312 -0.890185 -0.459664
H 9.406003 0.477833 0.457717
