19

C -0.859501 0.011458 -1.185819
C 0.536283 0.005734 -1.203099
C 1.257943 -0.000923 0.0
C 0.536283 0.005734 1.203099
C -0.859501 0.011458 1.185819
C -1.589191 0.013772 0.0
N -1.592273 0.020089 -2.471334
O -2.838349 0.01451 -2.423969
O -0.913853 0.031435 -3.519221
H 1.045633 0.007579 -2.168209
C 2.7658 -0.038735 0.0
H 1.045633 0.007579 2.168209
N -1.592273 0.020089 2.471334
O -2.838349 0.01451 2.423969
O -0.913853 0.031435 3.519221
H -2.677682 0.020922 0.0
H 3.180834 0.452714 0.89195
H 3.180834 0.452714 -0.89195
H 3.125584 -1.082077 0.0
