13

C -0.897275 0.681968 0.0
C -0.906975 -0.722697 0.0
C 0.338209 1.34186 0.0
O -2.047757 1.426257 0.0
C 0.276095 -1.459566 0.0
Cl -2.470362 -1.533107 0.0
C 1.52485 0.609795 0.0
C 1.5008 -0.78856 0.0
H 0.342119 2.434336 0.0
H -2.801281 0.782357 0.0
H 0.22957 -2.550433 0.0
H 2.481219 1.139718 0.0
H 2.430789 -1.361928 0.0
