20

C -1.33481 0.078044 -0.028109
C -0.661608 -1.151177 -0.016776
C 0.736747 -1.110657 -0.002987
C 1.405373 0.122447 0.001363
N 0.743945 1.299535 -0.010287
C -0.608605 1.275346 -0.022825
C -1.305254 2.612398 -0.002622
C 2.912998 0.186676 0.007921
C -1.411783 -2.458097 -0.000255
H -2.428502 0.104913 -0.043526
H 1.313241 -2.040958 -0.002327
H -2.288707 2.571435 -0.493752
H -0.683295 3.372177 -0.495083
H -1.467285 2.946289 1.036628
H 3.339781 -0.314778 -0.876156
H 3.332288 -0.314137 0.895956
H 3.240729 1.234059 0.00885
H -0.835832 -3.262596 -0.48061
H -2.382432 -2.373886 -0.511348
H -1.616988 -2.777032 1.035948
