22

C -2.943783 -0.764076 -0.034716
C -2.608084 -2.116539 0.095813
C -1.260627 -2.489004 0.091988
C -0.258691 -1.519073 -0.03917
C -0.580212 -0.157304 -0.164779
C -1.941408 0.201484 -0.164838
C 0.474055 0.937513 -0.3269
C 1.885139 0.561173 0.142653
C 2.920383 1.661292 -0.106881
O 0.031374 2.176956 0.285031
H -3.993675 -0.457176 -0.036749
H -3.389994 -2.873733 0.199291
H -0.981688 -3.541605 0.194678
H 0.784316 -1.840738 -0.038425
H -2.206423 1.257 -0.259304
H 0.532824 1.198564 -1.397965
H 2.200881 -0.358612 -0.375147
H 1.851185 0.304513 1.217148
H 2.994673 1.901251 -1.179969
H 3.918483 1.344778 0.23363
H 2.653154 2.587169 0.421711
H -0.081883 1.986167 1.242899
