14

N -4.048344 1.747472 0.0
C -3.148576 0.989172 0.0
C -2.082273 0.048094 0.0
C -0.781069 0.406338 0.0
C 0.366387 -0.568798 0.0
C 1.737313 0.140005 0.0
C 2.85976 -0.796072 0.0
N 3.753595 -1.555537 0.0
H -2.376244 -1.007437 0.0
H -0.540135 1.474787 0.0
H 0.301311 -1.232827 -0.877791
H 0.301311 -1.232827 0.877791
H 1.828482 0.793815 0.883913
H 1.828482 0.793815 -0.883913
