72

C 0.650101 0.273744 -2.501639
C -0.650101 -0.273744 -2.501639
C 1.312362 0.728942 -1.239241
C 1.287448 0.524076 -3.724545
C -1.312362 -0.728942 -1.239241
C -1.287448 -0.524076 -3.724545
O 2.654278 0.474079 -1.275563
O 0.743883 1.322035 -0.330082
C 0.647461 0.259173 -4.936354
O -2.654278 -0.474079 -1.275563
O -0.743883 -1.322035 -0.330082
C -0.647461 -0.259173 -4.936354
C 3.429876 1.008573 -0.156085
C -3.429876 -1.008573 -0.156085
C 4.898352 0.879113 -0.520862
C -4.898352 -0.879113 -0.520862
C 5.837346 1.461206 0.542485
C -5.837346 -1.461206 0.542485
C 7.311098 1.37857 0.128297
C -7.311098 -1.37857 0.128297
C 8.288779 1.981736 1.142376
C -8.288779 -1.981736 1.142376
C 9.750369 1.910542 0.68608
C -9.750369 -1.910542 0.68608
C 10.747264 2.51931 1.677835
C -10.747264 -2.51931 1.677835
C 12.203345 2.450177 1.203635
C -12.203345 -2.450177 1.203635
C 13.199757 3.059784 2.192938
C -13.199757 -3.059784 2.192938
H 2.291217 0.951825 -3.716728
H -2.291217 -0.951825 -3.716728
H 1.159652 0.466178 -5.879177
H -1.159652 -0.466178 -5.879177
H 3.133286 2.05428 0.010168
H 3.168998 0.439954 0.74858
H -3.133286 -2.05428 0.010168
H -3.168998 -0.439954 0.74858
H 5.139034 -0.182958 -0.692256
H 5.068177 1.393788 -1.48128
H -5.139034 0.182958 -0.692256
H -5.068177 -1.393788 -1.48128
H 5.570027 2.515248 0.735253
H 5.691078 0.931788 1.500221
H -5.570027 -2.515248 0.735253
H -5.691078 -0.931788 1.500221
H 7.579011 0.322036 -0.051221
H 7.441289 1.886579 -0.843994
H -7.579011 -0.322036 -0.051221
H -7.441289 -1.886579 -0.843994
H 8.015886 3.035182 1.332992
H 8.179957 1.463789 2.112033
H -8.015886 -3.035182 1.332992
H -8.179957 -1.463789 2.112033
H 10.02182 0.855897 0.499256
H 9.851043 2.419955 -0.289289
H -10.02182 -0.855897 0.499256
H -9.851043 -2.419955 -0.289289
H 10.475938 3.573155 1.869943
H 10.656053 2.005678 2.651901
H -10.475938 -3.573155 1.869943
H -10.656053 -2.005678 2.651901
H 12.472415 1.39641 1.012749
H 12.291926 2.961822 0.22909
H -12.472415 -1.39641 1.012749
H -12.291926 -2.961822 0.22909
H 12.981456 4.123994 2.376343
H 13.164519 2.545549 3.166513
H 14.233223 2.992648 1.819629
H -12.981456 -4.123994 2.376343
H -13.164519 -2.545549 3.166513
H -14.233223 -2.992648 1.819629
