15

C -2.165018 -0.441076 -0.31326
C -1.351631 0.757758 0.083101
C -0.053868 0.798602 0.436588
C 0.926591 -0.339429 0.518071
C 2.179268 -0.108904 -0.345029
H -1.575888 -1.367947 -0.346032
H -2.621532 -0.295256 -1.307314
H -3.000258 -0.599473 0.39083
H -1.898545 1.708651 0.085277
H 0.361779 1.780872 0.696186
H 0.450064 -1.289195 0.231964
H 1.241893 -0.462208 1.570691
H 1.914793 -0.016477 -1.409795
H 2.891904 -0.942245 -0.240088
H 2.700449 0.816329 -0.051189
