27

C -0.023246 -0.951199 0.143774
C 0.825464 -2.053634 -0.04431
C 2.162757 -1.902362 -0.424519
C 2.68108 -0.621104 -0.614101
C 1.850005 0.486765 -0.426336
C 0.503985 0.352916 -0.053998
C -1.948169 -2.590459 0.75496
C -1.474331 -1.148212 0.558004
C -0.900076 2.040598 -1.295713
C -0.369934 1.596559 0.085546
C 0.329522 2.762803 0.804918
H 0.435885 -3.061937 0.109292
H 2.792346 -2.784414 -0.569679
H 3.723612 -0.478822 -0.912339
H 2.266892 1.486224 -0.572647
H -1.870065 -3.182061 -0.169939
H -3.004447 -2.598874 1.063967
H -1.373696 -3.107841 1.538658
H -1.649076 -0.594772 1.497775
H -2.128443 -0.660411 -0.185687
H -1.425325 1.220671 -1.808348
H -0.071458 2.360817 -1.946735
H -1.598655 2.887229 -1.195716
H -1.245681 1.328532 0.695232
H -0.382202 3.585687 0.976935
H 1.159338 3.177312 0.212063
H 0.733915 2.449989 1.778943
