13

C -1.582222 0.616337 -0.007162
C -0.6583 -0.604745 0.099685
C 0.70466 -0.357567 -0.502227
C 1.832477 0.175752 0.285257
O 1.794524 -1.233118 -0.078829
H -2.568245 0.403056 0.43338
H -1.74605 0.908831 -1.057087
H -1.159692 1.486862 0.519264
H -1.121205 -1.466866 -0.411428
H -0.527135 -0.902496 1.152678
H 0.717013 -0.15949 -1.58228
H 1.692738 0.37604 1.354518
H 2.621437 0.757403 -0.20577
