26

C -0.395067 -0.094848 0.332033
C 0.442215 -1.31556 0.028535
C 1.780396 -1.29158 -0.169258
C 2.586248 -0.083109 -0.044011
C 1.845791 1.134534 0.463718
C 0.392347 1.180383 -0.03199
C 3.906962 -0.070545 -0.333628
C -2.597331 1.131475 -0.178897
C -1.794154 -0.167728 -0.350276
C -2.626855 -1.352511 0.165723
H -0.07303 -2.276573 -0.050032
H 2.30208 -2.218472 -0.43055
H 2.379226 2.05352 0.175968
H 0.389865 1.298832 -1.129853
H -0.102788 2.06896 0.386063
H 4.508495 0.838541 -0.242375
H 4.426357 -0.97424 -0.666685
H -3.597447 1.026227 -0.627232
H -2.113624 1.994754 -0.657701
H -2.740351 1.373742 0.887939
H -2.146738 -2.32501 -0.011895
H -3.609508 -1.381031 -0.329694
H -2.80746 -1.263238 1.250097
H -0.583473 -0.076944 1.426361
H -1.617789 -0.316757 -1.43133
H 1.845632 1.107179 1.568968
