26

C -5.227893 -0.207855 0.023292
C -4.003398 0.672587 -0.026429
O -2.857469 -0.07551 -0.023482
C -1.613984 0.696137 -0.028341
O -4.018623 1.898337 -0.04491
C -0.451311 -0.282274 -0.014613
C 0.904661 0.436107 -0.016708
C 2.100883 -0.524001 -0.00027
C 3.460264 0.186249 0.001522
C 4.649841 -0.779161 0.019899
H -5.05167 -1.181465 -0.45327
H -6.067377 0.312143 -0.455379
H -5.494266 -0.388511 1.07743
H -1.608541 1.357366 0.850869
H -1.604372 1.336934 -0.922518
H -0.525846 -0.94603 -0.89208
H -0.532368 -0.928385 0.875361
H 0.965494 1.107872 0.857928
H 0.973404 1.088996 -0.904924
H 2.04271 -1.195791 -0.875427
H 2.031586 -1.178822 0.886901
H 3.517541 0.857508 0.876199
H 3.529574 0.840111 -0.885407
H 5.609146 -0.238799 0.019826
H 4.641709 -1.441992 -0.860645
H 4.630306 -1.421749 0.915175
