32

C -4.851601 0.570925 -0.479398
C -3.463671 1.025666 -0.012976
C -2.348148 -0.035034 -0.127564
C -0.974419 0.610268 0.150918
C 0.247178 -0.277187 -0.123231
C 1.5826 0.448967 0.088507
C 2.811944 -0.431442 -0.169113
C 4.148525 0.293267 0.036943
C 5.369759 -0.597141 -0.215671
C -2.613352 -1.242645 0.784386
H -4.829175 0.230108 -1.527706
H -5.577818 1.396351 -0.417272
H -5.246387 -0.255906 0.130223
H -3.521866 1.369516 1.035543
H -3.164362 1.908999 -0.602882
H -2.340823 -0.393635 -1.174863
H -0.947733 0.951591 1.202404
H -0.888909 1.524422 -0.463128
H 0.198386 -0.654985 -1.160508
H 0.221453 -1.167935 0.526495
H 1.62435 0.838001 1.121904
H 1.623991 1.33612 -0.56879
H 2.768753 -0.828069 -1.199718
H 2.773135 -1.314416 0.494278
H 4.190374 0.691045 1.066192
H 4.190601 1.173395 -0.628449
H 6.311137 -0.046796 -0.060755
H 5.376575 -0.984586 -1.247799
H 5.378086 -1.466273 0.46226
H -1.841209 -2.017527 0.672973
H -3.579582 -1.718613 0.562347
H -2.62779 -0.936452 1.844449
