24

C -3.424679 -0.315436 -0.832244
C -2.521687 0.21849 0.009019
C -1.237239 -0.503471 0.353495
C 0.040386 0.174711 -0.179768
C 1.317759 -0.606587 0.153469
C 2.599382 0.055709 -0.368373
C 3.872185 -0.726738 -0.027112
C -2.740792 1.565083 0.653169
H -4.353237 0.204944 -1.086457
H -3.266744 -1.294093 -1.29611
H -1.285527 -1.533711 -0.034892
H -1.155444 -0.588441 1.453405
H 0.124407 1.194662 0.231729
H -0.046954 0.290687 -1.273839
H 1.240561 -1.627613 -0.261702
H 1.393123 -0.732644 1.248854
H 2.67481 1.077494 0.043081
H 2.52546 0.176373 -1.463424
H 4.771586 -0.221691 -0.412593
H 3.849048 -1.739779 -0.46078
H 3.993813 -0.836447 1.063076
H -3.719966 1.98806 0.387858
H -1.967103 2.289376 0.346932
H -2.683147 1.491062 1.753206
