24

C -1.507508 0.205534 0.0
C -0.732861 -0.232687 -1.262667
C 0.732861 0.232687 -1.262667
C 1.507508 -0.205534 0.0
C 0.732861 0.232687 1.262667
C -0.732861 -0.232687 1.262667
C -1.83683 1.707478 0.0
C 1.83683 -1.707478 0.0
H -2.472224 -0.331791 0.0
H -0.767384 -1.333266 -1.333768
H -1.242133 0.143679 -2.165648
H 0.767384 1.333266 -1.333768
H 1.242133 -0.143679 -2.165648
H 2.472224 0.331791 0.0
H 0.767384 1.333266 1.333768
H 1.242133 -0.143679 2.165648
H -1.242133 0.143679 2.165648
H -0.767384 -1.333266 1.333768
H -2.427831 1.980612 -0.888685
H -0.935485 2.339445 0.0
H -2.427831 1.980612 0.888685
H 2.427831 -1.980612 -0.888685
H 0.935485 -2.339445 0.0
H 2.427831 -1.980612 0.888685
