28

C -1.61864 1.896147 1.02557
C -1.656687 0.708997 0.055456
O -0.682942 -0.303655 0.449667
O 0.684171 0.337623 0.418735
C 1.656762 -0.703177 0.102913
C 1.630005 -1.803549 1.17018
C 2.970633 0.088071 0.165369
C 1.422168 -1.273975 -1.300303
C -1.43293 1.158189 -1.392303
C -2.971296 -0.070587 0.193944
H -2.407331 2.622358 0.775024
H -0.650242 2.411116 0.975069
H -1.774682 1.555437 2.059397
H 2.417423 -2.547769 0.975118
H 0.661881 -2.321375 1.172539
H 1.794835 -1.375417 2.169491
H 3.815253 -0.585848 -0.039771
H 3.114834 0.531192 1.160981
H 2.981194 0.894648 -0.581848
H 2.203507 -2.006898 -1.551456
H 1.442949 -0.474678 -2.055232
H 0.448563 -1.778952 -1.354135
H -2.212058 1.872692 -1.697892
H -1.466119 0.298525 -2.0772
H -0.457237 1.650553 -1.49955
H -3.107452 -0.428996 1.224147
H -2.989727 -0.936256 -0.483777
H -3.816832 0.585587 -0.060134
