68

C -13.449275 -0.284858 -1.089646
C -12.15902 0.520569 -0.908912
C -10.890545 -0.342206 -0.920813
C -9.596361 0.459355 -0.739853
C -8.325866 -0.400175 -0.744587
C -7.036042 0.408146 -0.560898
C -5.761531 -0.445256 -0.549827
C -4.477612 0.371516 -0.361988
C -3.198096 -0.473787 -0.33188
C -1.921043 0.352728 -0.139424
C -0.636437 -0.483842 -0.091998
C 0.634634 0.352097 0.099926
H -13.571074 -1.031603 -0.287944
H -13.452178 -0.827651 -2.049087
H -14.337217 0.366496 -1.074004
H -12.206613 1.082266 0.040574
H -12.087096 1.283208 -1.704456
H -10.842209 -0.905305 -1.870469
H -10.962958 -1.105701 -0.124858
H -9.648243 1.025502 0.207659
H -9.52477 1.22022 -1.538191
H -8.270179 -0.965777 -1.692123
H -8.397636 -1.161035 0.053692
H -7.096956 0.981422 0.381733
H -6.962454 1.163238 -1.364477
H -5.695296 -1.017384 -1.492757
H -5.835792 -1.200688 0.253366
H -4.550177 0.953067 0.574758
H -4.401165 1.11978 -1.171685
H -3.119465 -1.053255 -1.269398
H -3.27509 -1.223 0.476859
H -2.005395 0.941257 0.792023
H -1.842429 1.095008 -0.954427
H -0.548097 -1.072344 -1.023063
H -0.714162 -1.225245 0.723844
H 0.543183 0.946424 1.027054
H 0.712015 1.089138 -0.719956
C 1.923551 -0.477035 0.157744
C 3.191291 0.366303 0.33979
C 4.483191 -0.458053 0.398239
C 5.751075 0.389542 0.559644
H 2.014856 -1.07592 -0.766442
H 1.849073 -1.20934 0.982077
H 3.100767 0.966521 1.263179
H 3.262522 1.097857 -0.485554
H 4.568751 -1.068017 -0.519241
H 4.417089 -1.180523 1.231885
H 5.670794 0.99602 1.4798
H 5.810744 1.115215 -0.271751
C 7.044285 -0.433434 0.60772
C 8.315251 0.41518 0.739642
C 9.60761 -0.409875 0.775497
H 7.115522 -1.053554 -0.304132
H 6.991858 -1.146688 1.450104
H 8.250442 1.03197 1.654079
H 8.362188 1.131217 -0.100729
H 9.665102 -1.035478 -0.133565
H 9.56518 -1.118075 1.622627
C 10.882461 0.435875 0.885978
C 12.174072 -0.391452 0.904408
H 10.833751 1.054781 1.800165
H 10.919564 1.150638 0.04387
H 12.218778 -1.014473 -0.006129
H 12.140293 -1.100144 1.750465
C 13.445358 0.458667 1.002199
H 13.538518 1.14158 0.141712
H 14.349899 -0.169053 1.027447
H 13.444812 1.077425 1.914501
