16

C 0.0 0.0 -1.37246
C 0.0 1.22258 -0.696864
C 0.0 1.22258 0.696864
C 0.0 0.0 1.37246
C 0.0 -1.22258 0.696864
C 0.0 -1.22258 -0.696864
N 0.0 0.0 -2.851753
O 0.0 -1.107293 -3.426843
O 0.0 1.107293 -3.426843
H 0.0 2.151397 -1.266821
H 0.0 2.151397 1.266821
N 0.0 0.0 2.851753
H 0.0 -2.151397 1.266821
O 0.0 -1.107293 3.426843
O 0.0 1.107293 3.426843
H 0.0 -2.151397 -1.266821
