20

C -3.886698 0.123653 0.169872
C -2.581799 0.867628 0.025989
O -1.522535 0.002192 0.079895
C -0.20498 0.626855 -0.038952
C 0.843941 -0.472142 0.001553
O -2.466458 2.079573 -0.117883
H -3.909131 -0.42378 1.124603
H -3.992875 -0.621089 -0.633675
H -4.718813 0.835901 0.130193
H -0.083146 1.342364 0.788172
H -0.170168 1.198169 -0.978187
C 2.270337 0.085408 -0.103907
H 0.657092 -1.182431 -0.820995
H 0.733779 -1.042579 0.939
C 3.344008 -1.006996 -0.069133
H 2.446368 0.798649 0.71964
H 2.368993 0.667941 -1.036083
H 4.354144 -0.578143 -0.156007
H 3.213825 -1.72316 -0.896434
H 3.304116 -1.578013 0.872342
