20

C -2.790818 0.193749 0.148433
C -2.06394 -1.002941 0.205716
C -0.678622 -0.960551 0.004526
C -0.027993 0.269875 -0.257356
C -0.756586 1.454755 -0.312488
C -2.145568 1.411961 -0.106786
C 1.455712 0.017343 -0.448461
C 1.552646 -1.479655 -0.247258
C 0.334429 -2.018884 0.002299
C 2.376927 0.840998 0.472377
H -3.872708 0.178662 0.307147
H -2.572768 -1.951059 0.402385
H -0.263172 2.411056 -0.509898
H -2.728693 2.335757 -0.146247
H 1.727649 0.249986 -1.496974
H 2.495589 -2.026521 -0.306084
H 0.123383 -3.076413 0.17506
H 2.258659 1.91885 0.283994
H 3.43358 0.583878 0.299786
H 2.142294 0.649154 1.529828
