21

C -4.324822 -0.013075 -0.008012
C -3.043071 0.782164 -0.011375
O -1.950865 -0.04717 -0.025451
C -0.662381 0.635278 0.018183
C 0.400073 -0.449675 -0.027055
O 1.671878 0.201045 0.022736
C 2.75855 -0.740393 -0.032716
C 4.070074 0.020887 0.034742
O -2.966708 2.004284 0.015629
H -4.205105 -0.980711 -0.5138
H -5.119022 0.576764 -0.482547
H -4.619831 -0.208664 1.035693
H -0.592301 1.228868 0.939775
H -0.577781 1.317477 -0.838732
H 0.299483 -1.043903 -0.95553
H 0.279894 -1.139313 0.83043
H 2.689803 -1.327366 -0.96928
H 2.672973 -1.452469 0.811538
H 4.162575 0.718475 -0.811086
H 4.917387 -0.681354 -0.001276
H 4.139197 0.59885 0.968134
