10

C -1.832614 -0.736846 -0.004883
C -0.712201 -0.001379 0.014139
O 0.541317 -0.550212 -0.109946
C 1.621721 0.397303 -0.016366
H -2.79915 -0.241822 0.093999
H -1.809196 -1.822611 -0.119694
H -0.737212 1.088369 0.129181
H 1.549104 1.159186 -0.810719
H 2.545852 -0.178168 -0.147791
H 1.63238 0.886181 0.972079
