13

C -3.034005 0.352038 0.0
C -1.902448 -0.0966 0.0
C -0.533215 -0.605236 0.0
C 0.540407 0.504725 0.0
C 1.962854 -0.060266 0.0
H -4.033602 0.743138 0.0
H -0.388813 -1.255368 -0.881376
H -0.388813 -1.255368 0.881376
H 0.38565 1.14708 0.881113
H 0.38565 1.14708 -0.881113
H 2.709625 0.748277 0.0
H 2.148355 -0.68475 -0.889029
H 2.148355 -0.68475 0.889029
