15

C -2.089787 0.184816 0.311361
C -0.986548 0.731429 -0.219491
C 0.343172 0.061292 -0.47122
C 0.385206 -1.420043 -0.07942
C 1.47578 0.855515 0.212572
H -3.000687 0.772381 0.45281
H -2.131892 -0.861656 0.626208
H -1.022106 1.789635 -0.509369
H 0.522117 0.126897 -1.562147
H 1.376124 -1.848424 -0.294478
H -0.362224 -2.009988 -0.631588
H 0.193415 -1.553421 0.997467
H 1.466647 1.913703 -0.09244
H 2.46069 0.43745 -0.048977
H 1.370095 0.820412 1.308713
