16

C -2.107145 0.276488 0.270906
C -0.746975 0.802701 -0.155532
C 0.484846 0.01365 0.296314
C 1.78922 0.741083 -0.032189
C 0.456924 -1.413354 -0.294929
O -0.655088 1.816168 -0.850801
H -2.441101 -0.492945 -0.445598
H -2.839281 1.093622 0.253607
H -2.085688 -0.194995 1.265542
H 0.391911 -0.089718 1.394135
H 1.944042 0.799702 -1.119758
H 2.646741 0.211717 0.411397
H 1.77997 1.771446 0.350587
H 1.324153 -1.988328 0.062662
H 0.507287 -1.37967 -1.394597
H -0.449818 -1.967566 -0.011745
