15

C -1.294814 0.024655 0.117171
C -0.389869 -1.243629 0.056658
C 1.049902 -0.727486 -0.206482
C 1.024122 0.74607 0.239788
C -0.369282 1.219704 -0.206073
H -1.716148 0.140878 1.128388
H -2.150532 -0.034772 -0.572206
H -0.43844 -1.796896 1.006945
H -0.714597 -1.944435 -0.727034
H 1.277903 -0.776327 -1.284469
H 1.818147 -1.323728 0.308958
H 1.845806 1.341818 -0.187371
H 1.108716 0.811578 1.338695
H -0.360099 1.409046 -1.293201
H -0.690814 2.153522 0.280233
