21

C 1.561407 0.266543 0.317195
C 1.219237 -0.498187 -0.972406
C 0.745067 -0.179957 1.541213
C 0.0 0.0 -1.773194
C -0.745067 0.179957 1.541213
C -1.219237 0.498187 -0.972406
C -1.561407 -0.266543 0.317195
H 1.457838 1.355525 0.161651
H 2.626907 0.100668 0.547901
H 1.076847 -1.560022 -0.706773
H 2.091341 -0.483545 -1.646701
H 1.202542 0.244338 2.451386
H 0.850233 -1.276286 1.636081
H -0.319247 -0.816391 -2.44295
H 0.319247 0.816391 -2.44295
H -0.850233 1.276286 1.636081
H -1.202542 -0.244338 2.451386
H -2.091341 0.483545 -1.646701
H -1.076847 1.560022 -0.706773
H -2.626907 -0.100668 0.547901
H -1.457838 -1.355525 0.161651
