24

C -1.277608 0.894379 -0.578748
C -1.289951 -0.641144 -0.573235
C 0.148479 1.4582 -0.49945
O -1.964646 1.445832 -1.705759
C -0.479809 -1.195004 0.600168
O -2.654802 -1.075957 -0.486207
C 0.94752 0.859289 0.658319
O 0.784361 1.17299 -1.768092
C 0.948587 -0.666802 0.595931
O -0.506896 -2.631726 0.494093
O 2.299886 1.380375 0.580305
O 1.624997 -1.241776 1.742878
H -1.840172 1.236776 0.303554
H -0.834618 -1.007785 -1.511518
H 0.080828 2.551014 -0.363739
H -1.343516 1.348755 -2.465187
H -0.973227 -0.890383 1.543215
H -2.607765 -2.050144 -0.345729
H 0.483872 1.177942 1.607391
H 1.677845 1.583278 -1.723202
H 1.446916 -0.990023 -0.331244
H 0.113411 -2.95576 1.188575
H 2.630739 1.459952 1.500871
H 2.585569 -1.222276 1.536806
