17

O -0.389213 -0.100299 -3.85538
C 0.504194 -0.13696 -2.725868
C -0.251134 -0.051054 -1.399932
S 0.935984 -0.166291 0.0
C -0.251134 -0.051054 1.399932
C 0.504194 -0.13696 2.725868
O -0.389213 -0.100299 3.85538
H -0.848892 0.767011 -3.83101
H 1.259784 0.665649 -2.793843
H 1.029971 -1.098392 -2.800632
H -0.981677 -0.87096 -1.334929
H -0.791024 0.908151 -1.329598
H -0.981677 -0.87096 1.334929
H -0.791024 0.908151 1.329598
H 1.259784 0.665649 2.793843
H 1.029971 -1.098392 2.800632
H -0.848892 0.767011 3.83101
