21

C -0.116698 -0.005148 0.210381
C -0.049038 -1.535835 0.071768
C 1.334232 0.544044 0.205562
C -0.906696 0.646682 -0.947484
O -0.757345 0.257535 1.448031
C -1.411143 -2.190413 0.017259
C 1.443993 2.019211 0.513207
O -0.384822 0.298075 -2.171263
O -1.82457 1.433314 -0.808471
O -1.477723 -3.287348 0.837929
O -2.338941 -1.835105 -0.694527
O 2.678571 2.504362 0.172743
O 0.58056 2.724092 1.024861
H 0.477271 -1.802304 -0.856731
H 0.528479 -1.93416 0.91625
H 1.898764 0.016362 0.992566
H 1.845188 0.335965 -0.744577
H -0.832421 1.243547 1.500353
H -0.961547 0.75969 -2.832494
H -2.390445 -3.651751 0.700854
H 2.664331 3.459185 0.443782
