19

C -1.647792 0.166243 -0.672764
C -1.647792 0.166243 0.672764
C -0.532898 -0.28987 1.585013
C 0.863158 0.295388 1.300315
C 1.525208 -0.181906 0.0
C 0.863158 0.295388 -1.300315
C -0.532898 -0.28987 -1.585013
H -2.562849 0.509781 -1.169127
H -2.562849 0.509781 1.169127
H -0.462804 -1.395108 1.544961
H -0.808159 -0.052517 2.625062
H 1.522122 0.027659 2.144086
H 0.79709 1.397433 1.296015
H 1.562045 -1.287378 0.0
H 2.577012 0.151263 0.0
H 1.522122 0.027659 -2.144086
H 0.79709 1.397433 -1.296015
H -0.462804 -1.395108 -1.544961
H -0.808159 -0.052517 -2.625062
