52

C -0.181337 1.006522 2.552584
C -0.280897 -0.529197 2.621461
C 1.196038 1.542806 2.955282
C -1.662383 -1.044848 2.334633
C 1.322227 3.064861 2.833106
C -2.08597 -1.730297 1.258529
C 2.687436 3.606039 3.270932
C -1.27896 -2.163545 0.058912
C 2.813997 5.125082 3.114825
C -1.303391 -3.659654 -0.135037
C 4.173334 5.654356 3.569219
C -1.848737 -4.34584 -1.154712
C 4.33687 7.144459 3.403756
C -2.543281 -3.805397 -2.371577
O 5.567204 7.568615 3.858509
O 3.516137 7.918972 2.929784
C -1.80181 -4.122942 -3.683228
C -2.549169 -3.642942 -4.931711
C -1.816573 -3.940336 -6.243844
C -2.569572 -3.454469 -7.484776
H -0.424037 1.333485 1.526996
H -0.954707 1.45387 3.201185
H 0.455578 -0.969017 1.931045
H 0.020442 -0.854781 3.634635
H 1.416666 1.237831 3.994141
H 1.972203 1.061847 2.333271
H -2.412664 -0.80765 3.099656
H 1.130688 3.362943 1.786855
H 0.530107 3.549525 3.430852
H -3.142643 -2.022222 1.225648
H 2.869797 3.325133 4.324037
H 3.482701 3.10829 2.687468
H -1.676801 -1.660658 -0.838001
H -0.234309 -1.827747 0.163043
H 2.647569 5.408471 2.06323
H 2.017761 5.629248 3.685415
H -0.834274 -4.234029 0.672871
H 4.366139 5.408316 4.627313
H 4.994477 5.168037 3.0148
H -1.768721 -5.440202 -1.115902
H -3.558397 -4.241199 -2.429498
H -2.687715 -2.716634 -2.292488
H 5.567136 8.547132 3.697689
H -0.799853 -3.661546 -3.650517
H -1.628736 -5.21138 -3.751113
H -3.5521 -4.105857 -4.958244
H -2.72683 -2.554989 -4.854663
H -0.816357 -3.473896 -6.215145
H -1.637126 -5.026766 -6.322851
H -3.558561 -3.933168 -7.566715
H -2.734369 -2.365538 -7.453118
H -2.014227 -3.679096 -8.408544
