19

C -3.201233 -0.684243 -0.077861
C -1.988092 0.241758 -0.062053
C -0.645671 -0.473567 0.033679
C 0.588408 0.419635 0.080096
C 1.923828 -0.317537 -0.024427
C 3.129935 0.623123 0.055837
O -0.565382 -1.702588 0.079155
H -3.158601 -1.377489 -0.9301
H -4.132764 -0.10281 -0.150686
H -3.245258 -1.295216 0.83512
H -2.045405 0.960666 0.776018
H -1.961374 0.878182 -0.965365
H 0.53733 0.993702 1.025169
H 0.494736 1.187121 -0.709788
H 1.948422 -0.883666 -0.969197
H 1.977329 -1.074906 0.772743
H 3.116928 1.370867 -0.754351
H 4.07523 0.064593 -0.025563
H 3.151635 1.172374 1.011573
