11

C -1.72506 -0.656958 -0.033592
C -0.526665 0.254077 0.054429
O 0.638197 -0.436529 -0.156815
C 1.844112 0.366849 -0.037403
O -0.568569 1.452785 0.304588
H -1.521307 -1.548515 -0.641013
H -2.576011 -0.095951 -0.440921
H -1.994201 -0.985001 0.983469
H 1.831912 1.186247 -0.76872
H 2.672007 -0.322008 -0.239309
H 1.925585 0.785005 0.975287
