15

C -2.051942 0.239933 -0.104113
O -0.764395 0.713257 -0.50303
C 0.328405 0.141178 0.254083
C 1.5447 1.01853 -0.018326
C 0.578099 -1.326877 -0.101147
H -2.212786 -0.821237 -0.367285
H -2.791106 0.849609 -0.640264
H -2.206832 0.364721 0.985173
H 0.06999 0.208021 1.330189
H 1.81481 0.985258 -1.085184
H 2.409746 0.67394 0.568435
H 1.334901 2.063997 0.249737
H 0.821353 -1.430108 -1.17
H -0.296515 -1.957363 0.116243
H 1.421572 -1.722859 0.485491
