16

C 0.0 0.0 -1.430651
C 0.0 1.200857 -0.698133
C 0.0 1.200857 0.698133
C 0.0 0.0 1.430651
C 0.0 -1.200857 0.698133
C 0.0 -1.200857 -0.698133
N 0.0 0.0 -2.824359
N 0.0 0.0 2.824359
H 0.0 2.158525 -1.227956
H 0.0 2.158525 1.227956
H 0.0 -2.158525 1.227956
H 0.0 -2.158525 -1.227956
H 0.0 -0.867623 -3.349819
H 0.0 0.867623 -3.349819
H 0.0 -0.867623 3.349819
H 0.0 0.867623 3.349819
