32

C 0.0 0.0 -5.78179
C 0.0 1.204113 -5.07049
C 0.0 1.201611 -3.674672
C 0.0 0.0 -2.934242
C 0.0 -1.201611 -3.674672
C 0.0 -1.204113 -5.07049
C 0.0 0.0 -1.44711
C 0.0 1.193047 -0.696034
C 0.0 1.193047 0.696034
C 0.0 0.0 1.44711
C 0.0 -1.193047 0.696034
C 0.0 -1.193047 -0.696034
C 0.0 0.0 2.934242
C 0.0 1.201611 3.674672
C 0.0 1.204113 5.07049
C 0.0 0.0 5.78179
C 0.0 -1.204113 5.07049
C 0.0 -1.201611 3.674672
H 0.0 0.0 -6.874683
H 0.0 2.158242 -5.604647
H 0.0 2.162687 -3.15906
H 0.0 -2.162687 -3.15906
H 0.0 -2.158242 -5.604647
H 0.0 2.160304 -1.200024
H 0.0 2.160304 1.200024
H 0.0 -2.160304 1.200024
H 0.0 -2.160304 -1.200024
H 0.0 2.162687 3.15906
H 0.0 2.158242 5.604647
H 0.0 0.0 6.874683
H 0.0 -2.158242 5.604647
H 0.0 -2.162687 3.15906
