26

C 5.427056 4.995485 -0.999543
C 5.11339 6.431477 -1.462523
C 6.954357 4.806677 -0.922231
C 4.81132 4.762836 0.394179
C 5.707481 7.441364 -0.461394
C 7.551881 5.813017 0.080428
C 5.404767 5.769081 1.39924
C 5.091542 7.203517 0.931435
C 7.234227 7.247284 -0.384921
C 6.932055 5.578102 1.471874
H 5.000698 4.273983 -1.717103
H 4.021466 6.573629 -1.540062
H 5.531912 6.605149 -2.468879
H 7.404926 4.953976 -1.919089
H 7.194391 3.774787 -0.612287
H 5.011638 3.730468 0.729014
H 3.714391 4.876975 0.345982
H 5.481226 8.468513 -0.794137
H 8.6452 5.675595 0.134822
H 4.962526 5.600471 2.395707
H 3.999603 7.360359 0.895137
H 5.4957 7.934203 1.653801
H 7.674423 7.979347 0.314045
H 7.69021 7.433228 -1.372765
H 7.367077 6.280585 2.203559
H 7.170324 4.559707 1.82451
