14

C -2.001658 -0.363888 0.0
C -0.651787 0.433691 0.0
C 0.651787 -0.433691 0.0
C 2.001658 0.363888 0.0
F -2.109312 -1.145127 1.104723
F -2.109312 -1.145127 -1.104723
F -3.026869 0.529635 0.0
F -0.652646 1.230189 1.116428
F -0.652646 1.230189 -1.116428
F 0.652646 -1.230189 -1.116428
F 0.652646 -1.230189 1.116428
F 2.109312 1.145127 -1.104723
F 3.026869 -0.529635 0.0
F 2.109312 1.145127 1.104723
