19

C -2.647424 -0.809245 -0.084622
C -2.030253 -2.06313 -0.003594
C -0.637931 -2.132457 0.119344
C 0.134095 -0.968336 0.154941
C -0.466771 0.307314 0.065673
C -1.875634 0.352868 -0.047074
C 0.255956 1.583033 0.108295
C 1.576497 1.870429 0.019091
H -3.734849 -0.735957 -0.174684
H -2.629 -2.977345 -0.030086
H -0.144249 -3.105641 0.193022
H 1.212857 -1.058685 0.270898
H -2.366348 1.329106 -0.102831
H -0.407366 2.449494 0.213266
H 1.828222 2.934104 0.090285
C 2.745343 0.940889 -0.163576
H 3.651999 1.503635 -0.427774
H 2.564808 0.201863 -0.960347
H 2.970046 0.37806 0.759773
