22

C 2.406729 1.082898 0.030546
C 1.073179 0.421568 0.386123
C -0.125059 1.310669 0.012881
C 0.929875 -0.960962 -0.27286
C -1.467745 0.639572 0.330901
C -0.413729 -1.628483 0.044061
C -1.583833 -0.730493 -0.341992
O -2.802434 -1.421021 0.03262
H 2.520972 2.05773 0.530057
H 2.485822 1.255098 -1.05528
H 3.259461 0.453333 0.328745
H 1.045516 0.271097 1.482102
H -0.074073 1.541908 -1.067015
H -0.055091 2.279417 0.534807
H 1.757322 -1.616173 0.045135
H 1.035437 -0.846347 -1.367625
H -2.304628 1.284658 0.010678
H -1.574792 0.498562 1.420002
H -0.486564 -1.842171 1.124026
H -0.505731 -2.593959 -0.477247
H -1.570871 -0.587252 -1.441102
H -3.549764 -0.86965 -0.289562
