22

C -1.283891 0.17266 0.590566
C -0.706404 -1.13638 0.00978
C 0.810609 -1.198905 0.289661
C 1.563025 0.048659 -0.20031
C 0.972387 1.347074 0.355261
C -0.539623 1.423302 0.099311
O 1.280151 1.380054 1.776472
C -1.042368 -1.324456 -1.478488
H -1.2134 0.130027 1.689544
H -2.356007 0.25621 0.347176
H -1.179189 -1.973004 0.55329
H 1.245143 -2.099165 -0.175918
H 0.968544 -1.299473 1.375118
H 1.535299 0.106381 -1.301082
H 2.625214 -0.008216 0.08361
H 1.468455 2.206997 -0.13316
H -0.698438 1.566613 -0.983498
H -0.951437 2.326834 0.582614
H 0.902788 2.215705 2.12644
H -2.131658 -1.317718 -1.642477
H -0.657318 -2.287747 -1.84926
H -0.611882 -0.535452 -2.114649
