22

C -1.004705 1.530797 0.481261
C 0.301964 1.824146 0.352225
C 1.224198 1.149442 -0.623125
C 1.904255 -0.113424 -0.042064
C 0.96191 -1.133932 0.62138
C -0.243745 -1.614619 -0.220716
C -1.604035 -0.946443 0.062693
C -1.764245 0.532563 -0.359883
H -1.573672 2.035768 1.270378
H 0.745137 2.553081 1.040593
H 2.007782 1.847891 -0.959476
H 0.661792 0.86329 -1.527129
H 2.662578 0.190529 0.700505
H 2.460082 -0.605217 -0.859583
H 0.593435 -0.723706 1.57577
H 1.577128 -2.007477 0.894578
H -0.381195 -2.694059 -0.04215
H -0.010224 -1.529067 -1.297285
H -1.831256 -1.041153 1.139025
H -2.3816 -1.529391 -0.460944
H -2.836543 0.784645 -0.326133
H -1.46904 0.626338 -1.41992
