22

C 0.182861 0.418273 0.0
C 0.335692 -0.962176 0.0
C 1.328789 1.247545 0.0
O -1.009025 1.119213 0.0
C 1.625974 -1.530387 0.0
C 2.607691 0.684467 0.0
O 1.18468 2.609396 0.0
C -2.243525 0.361222 0.0
C 2.756882 -0.698199 0.0
C 1.753452 -2.993038 0.0
C -3.393418 1.346426 0.0
O 2.812492 -3.625857 0.0
H -0.533047 -1.624692 0.0
H 3.470877 1.353991 0.0
H 0.210017 2.781361 0.0
H -2.267011 -0.284661 -0.893448
H -2.267011 -0.284661 0.893448
H 3.746284 -1.159999 0.0
H 0.773434 -3.535986 0.0
H -3.363531 1.988011 -0.892232
H -4.349029 0.801742 0.0
H -3.363531 1.988011 0.892232
