16

C -0.160982 -0.345673 -2.472015
C 0.295498 0.410098 -1.226802
N -0.044267 -0.323438 0.0
C 0.295498 0.410098 1.226802
C -0.160982 -0.345673 2.472015
H 0.286935 -1.350172 -2.504995
H 0.127057 0.195564 -3.38614
H -1.257308 -0.463021 -2.489679
H -0.132691 1.437655 -1.234349
H 1.391279 0.533457 -1.24829
H -1.055311 -0.512377 0.0
H -0.132691 1.437655 1.234349
H 1.391279 0.533457 1.24829
H 0.286935 -1.350172 2.504995
H -1.257308 -0.463021 2.489679
H 0.127057 0.195564 3.38614
