21

C -2.387142 -1.121566 0.055936
C -1.686761 -2.350777 0.046183
C -0.305112 -2.355006 0.021501
C 0.434866 -1.14124 0.00179
C -0.274682 0.112454 0.007633
C -1.696406 0.077126 0.036418
C 0.466104 1.340688 -0.018731
C 1.851679 1.284211 -0.046361
C 2.550326 0.052955 -0.046303
C 1.855726 -1.138758 -0.022233
H -3.480022 -1.11919 0.080146
H -2.239613 -3.29383 0.057515
H 0.245067 -3.300712 0.012979
H -2.254801 1.015345 0.043683
C -0.240875 2.67269 -0.0184
H 2.421146 2.218067 -0.070627
H 3.643277 0.054493 -0.063141
H 2.384924 -2.096112 -0.023251
H -0.896037 2.789302 -0.897882
H 0.483523 3.498942 -0.031351
H -0.875188 2.800919 0.874498
