28

C -5.276484 0.073135 0.126806
C -3.945301 0.765215 -0.108338
C -2.709496 -0.121823 -0.080887
C -1.375585 0.622685 -0.065213
C -0.161914 -0.314828 -0.056966
C 1.180647 0.425422 -0.022041
C 2.400355 -0.504364 -0.009813
C 3.742595 0.236027 0.038301
C 4.956584 -0.698659 0.059171
O -3.880587 1.981289 -0.29711
H -5.300182 -0.940422 -0.303153
H -6.095877 0.681111 -0.277718
H -5.431646 -0.033011 1.214688
H -2.776057 -0.786629 -0.964107
H -2.797544 -0.80897 0.781319
H -1.344189 1.284964 0.815617
H -1.330467 1.294074 -0.937227
H -0.195063 -0.968098 -0.947715
H -0.224689 -0.99318 0.813425
H 1.211819 1.07969 0.867475
H 1.244956 1.102067 -0.892938
H 2.374553 -1.154343 -0.903094
H 2.331416 -1.186127 0.857455
H 3.765663 0.888057 0.928917
H 3.81485 0.913254 -0.830833
H 5.900736 -0.133492 0.098838
H 4.988217 -1.335602 -0.839911
H 4.932691 -1.367443 0.935052
