22

C -2.317234 1.047313 0.0
C -1.862263 -0.265177 0.0
C -0.45935 -0.552766 0.0
C 0.45935 0.552766 0.0
C -0.036721 1.881093 0.0
C -1.399231 2.117706 0.0
C 1.862263 0.265177 0.0
C 2.317234 -1.047313 0.0
C 1.399231 -2.117706 0.0
C 0.036721 -1.881093 0.0
N 2.74403 1.350342 0.0
C 3.940383 1.577757 0.0
O 5.075916 1.937753 0.0
N -2.74403 -1.350342 0.0
C -3.940383 -1.577757 0.0
O -5.075916 -1.937753 0.0
H -3.392249 1.24406 0.0
H 0.672504 2.710262 0.0
H -1.776742 3.143207 0.0
H 3.392249 -1.24406 0.0
H 1.776742 -3.143207 0.0
H -0.672504 -2.710262 0.0
