30

C -2.487795 0.662559 0.029841
C -1.815938 1.91717 -0.596998
C -0.870371 2.643083 0.325904
C 0.473765 2.551868 0.353704
C 1.325142 1.657068 -0.501052
C 2.064779 0.570127 0.338363
C 2.38525 -0.643462 -0.485703
C 1.854083 -1.874323 -0.360946
C 0.880374 -2.381077 0.671009
C -0.501165 -2.764691 0.090718
C -1.450054 -1.630568 -0.23059
C -1.513487 -0.430668 0.368727
H -3.249072 0.28317 -0.671786
H -3.026179 0.972944 0.944049
H -2.615517 2.612996 -0.904824
H -1.30172 1.609112 -1.519745
H -1.345121 3.303405 1.062793
H 1.007816 3.151623 1.102059
H 2.071418 2.251926 -1.056967
H 0.70417 1.150499 -1.252726
H 1.436817 0.292592 1.196738
H 2.987585 1.004735 0.760911
H 3.085216 -0.481199 -1.315267
H 2.165136 -2.626666 -1.097963
H 0.756897 -1.662999 1.494592
H 1.312188 -3.287639 1.131064
H -1.003685 -3.445971 0.803315
H -0.349807 -3.369102 -0.820801
H -2.1859 -1.848676 -1.016792
H -0.794825 -0.187835 1.158373
