13

O -0.396569 -0.01541 -2.480117
C 0.359593 -0.250653 -1.275037
C -0.429503 0.053182 0.0
C 0.359593 -0.250653 1.275037
O -0.396569 -0.01541 2.480117
H -0.640185 0.935471 -2.483784
H 1.303846 0.324736 -1.295601
H 0.628629 -1.316261 -1.312649
H -1.362711 -0.530384 0.0
H -0.718415 1.121437 0.0
H 1.303846 0.324736 1.295601
H 0.628629 -1.316261 1.312649
H -0.640185 0.935471 2.483784
