26

C -3.845932 1.030323 -0.842533
O -2.843869 0.123006 -0.379941
C -1.555328 0.741113 -0.1724
C -0.568952 -0.427341 -0.138653
O 0.762202 0.097737 -0.045088
C 1.797417 -0.885372 -0.257034
C 3.064397 -0.071515 -0.550182
O 4.180939 -0.88904 -0.946749
C 1.960072 -1.821615 0.93987
C -1.508792 1.590812 1.095415
H -4.734836 0.427272 -1.071136
H -3.521515 1.553848 -1.762096
H -4.117061 1.782366 -0.079415
H -1.312985 1.36929 -1.051057
H -0.684463 -1.021031 -1.063257
H -0.80501 -1.07862 0.722572
H 1.553931 -1.477077 -1.159811
H 3.3182 0.551007 0.327005
H 2.868947 0.600877 -1.395369
H 4.45582 -1.407017 -0.161626
H 2.778488 -2.538521 0.765113
H 1.053749 -2.418524 1.116646
H 2.179607 -1.246786 1.853735
H -2.198273 2.446013 1.037292
H -0.494132 1.986012 1.246785
H -1.782622 0.982786 1.971911
