24

C -1.716824 -0.929094 -0.004081
C -1.012669 -2.131159 -0.009608
C 0.387969 -2.122152 -0.016184
C 1.01844 -0.874379 -0.019282
C 0.332043 0.356183 -0.011199
C -1.083281 0.328501 -0.005295
C -1.980823 1.549978 -0.007234
C 1.188278 -3.402466 0.008594
C 1.253312 1.579818 -0.011101
C 0.715824 3.013982 0.024669
H -2.810774 -0.956314 -0.004291
H -1.556216 -3.081106 -0.011047
H 2.114152 -0.847027 -0.028421
H -3.034716 1.237865 -0.020285
H -1.819654 2.18986 -0.886787
H -1.838473 2.178656 0.884075
H 2.161798 -3.279499 -0.490147
H 0.651345 -4.224033 -0.489825
H 1.39079 -3.725726 1.044508
H 1.908124 1.486802 -0.896438
H 1.938781 1.457787 0.846734
H 0.103652 3.2603 -0.853698
H 1.567141 3.712092 0.030726
H 0.12178 3.221131 0.925619
