15

C 1.189767 -1.21456 0.0
C 2.647331 -1.098394 0.0
N 3.814682 -0.983666 0.0
C 0.470977 0.151017 0.0
C -1.055221 0.004783 0.0
C -1.784091 1.351775 0.0
H 0.89103 -1.804821 0.88287
H 0.89103 -1.804821 -0.88287
H 0.794981 0.72727 -0.881292
H 0.794981 0.72727 0.881292
H -1.365613 -0.583042 0.881245
H -1.365613 -0.583042 -0.881245
H -2.875966 1.212453 0.0
H -1.524136 1.94889 -0.888775
H -1.524136 1.94889 0.888775
