52

C -10.17857 -0.375962 -0.074882
C -8.916798 0.493221 -0.047419
C -7.61573 -0.318868 -0.027656
C -6.3464 0.541448 -0.005038
C -5.048277 -0.275229 0.004488
C -3.776378 0.582003 0.017535
C -2.484268 -0.243733 0.014803
C -1.215393 0.609792 0.02999
N -0.004372 -0.223215 -0.011689
C 1.236213 0.564837 0.031778
C 2.473259 -0.334025 0.012652
C 3.795586 0.441268 0.020034
C 5.034357 -0.462921 -0.000559
C 6.362806 0.302283 -0.001918
C 7.598513 -0.605222 -0.034944
C 8.929481 0.155965 -0.046472
C 10.157832 -0.759095 -0.089495
H -10.198307 -1.026341 -0.96463
H -11.092382 0.238234 -0.092155
H -10.233842 -1.029432 0.811193
H -8.945738 1.154915 0.836237
H -8.912901 1.164809 -0.923862
H -7.590047 -0.984871 -0.909217
H -7.618485 -0.988805 0.851254
H -6.369369 1.202518 0.880164
H -6.346577 1.215325 -0.880696
H -5.030143 -0.94036 -0.877446
H -5.044586 -0.945073 0.883196
H -3.791199 1.243221 0.902472
H -3.781697 1.254573 -0.858951
H -2.456751 -0.90033 -0.870712
H -2.479816 -0.915949 0.892522
H -1.233375 1.289847 0.911196
H -1.199228 1.263839 -0.858592
H -0.01641 -0.844942 0.806641
H 1.279196 1.241159 0.915137
H 1.243587 1.221856 -0.854725
H 2.421863 -0.984403 -0.876555
H 2.443226 -1.010884 0.886404
H 3.836012 1.095887 0.909164
H 3.825885 1.118729 -0.852302
H 4.991339 -1.118564 -0.888909
H 5.004513 -1.140853 0.871545
H 6.411062 0.952965 0.890039
H 6.388846 0.984605 -0.870718
H 7.547141 -1.259735 -0.924158
H 7.575949 -1.285046 0.836113
H 8.984969 0.804668 0.845604
H 8.94944 0.838575 -0.914189
H 11.093764 -0.179046 -0.097482
H 10.152779 -1.394639 -0.990111
H 10.189421 -1.428997 0.785322
