17

C -2.479225 -0.974012 0.016928
C -1.355592 0.065966 -0.037823
C 0.026363 -0.523461 -0.002528
C 1.199824 0.156905 0.006305
C 2.429209 -0.656112 0.038197
O 3.580414 -0.210554 0.030067
C 1.338553 1.652932 -0.022787
H -2.418289 -1.672916 -0.832217
H -3.467239 -0.491326 -0.017046
H -2.428751 -1.567613 0.943071
H -1.465891 0.784036 0.794683
H -1.460191 0.680897 -0.951417
H 0.090631 -1.620064 0.021278
H 2.248747 -1.760346 0.068122
H 0.497681 2.138362 -0.539532
H 2.279627 1.934206 -0.516105
H 1.38413 2.063101 1.000804
