21

C 0.17871 -0.191499 0.0
C 0.911886 -0.134217 -1.199827
C 2.306585 -0.02256 -1.203882
C 3.01498 0.033707 0.0
C 2.306585 -0.02256 1.203882
C 0.911886 -0.134217 1.199827
C -2.025674 0.198637 1.255684
C -1.343466 -0.372315 0.0
C -2.025674 0.198637 -1.255684
H 0.392912 -0.172052 -2.159194
H 2.839348 0.02127 -2.158054
H 4.104591 0.123373 0.0
H 2.839348 0.02127 2.158054
H 0.392912 -0.172052 2.159194
H -3.112609 0.034385 1.203419
H -1.852306 1.283131 1.342405
H -1.674313 -0.273467 2.183652
H -1.526471 -1.463523 0.0
H -1.852306 1.283131 -1.342405
H -3.112609 0.034385 -1.203419
H -1.674313 -0.273467 -2.183652
