21

C -0.02229 1.432754 0.009963
C 0.071518 -0.052767 0.002734
C 1.174609 2.1665 0.00336
C -1.249309 2.115138 0.022295
O -1.160018 -0.652192 0.009585
O 1.127674 -0.683112 -0.007633
C 1.145647 3.559696 0.009166
C -1.274775 3.50983 0.028005
C -1.130976 -2.113714 3.5e-05
C -0.079361 4.234597 0.02156
C -2.562843 -2.605018 0.011246
H 2.119438 1.619286 -0.006388
H -2.180312 1.547031 0.027247
H 2.081825 4.12395 0.003923
H -2.234277 4.03397 0.037408
H -0.583108 -2.444385 -0.893703
H -0.56513 -2.456398 0.877964
H -0.102454 5.327568 0.025893
H -3.095339 -2.264269 0.910916
H -3.114052 -2.251241 -0.871942
H -2.574468 -3.705223 0.003365
