16

C -1.469067 -1.028172 -0.192234
C -0.322763 -0.03326 -0.41887
C 0.985445 -0.577252 0.17575
N 2.154145 0.257879 -0.187624
C -0.676928 1.353365 0.137694
H -1.241199 -2.01438 -0.627323
H -2.403273 -0.669929 -0.651939
H -1.666324 -1.174699 0.883056
H -0.156555 0.070276 -1.505336
H 1.166815 -1.584452 -0.231178
H 0.857775 -0.694568 1.272983
H 3.001961 -0.195718 0.174584
H 2.097259 1.146322 0.325915
H -1.615137 1.72664 -0.301249
H 0.101683 2.098275 -0.08663
H -0.813836 1.319674 1.232401
