18

C -3.288939 -0.161261 -0.402047
C -2.232873 0.130757 0.370267
C -0.912488 -0.585601 0.35843
H -4.220309 0.408575 -0.339676
H -3.26292 -0.98275 -1.12623
H -2.316224 0.965711 1.078135
H -0.938209 -1.400974 -0.383989
H -0.754889 -1.06649 1.342073
C 0.283494 0.34245 0.073695
C 1.62759 -0.394978 0.026125
H 0.325099 1.129839 0.847654
H 0.114862 0.865917 -0.88306
H 1.585092 -1.17653 -0.752769
H 1.784894 -0.928055 0.980291
C 2.818503 0.530539 -0.244107
H 2.697235 1.070021 -1.197673
H 3.76282 -0.033282 -0.298139
H 2.927263 1.286113 0.551019
