11

C -1.172214 -1.107144 -0.116089
C -0.219432 -0.15306 -0.017118
C 1.164537 -0.498399 0.044042
C 2.362002 -0.728303 0.097359
C -0.543091 1.324461 0.030022
H -2.230904 -0.83722 -0.162468
H -0.918893 -2.168852 -0.147357
H 3.410466 -0.955872 0.14248
H -1.627414 1.491066 -0.037873
H -0.050523 1.858273 -0.79855
H -0.174533 1.775051 0.965552
