12

C 0.669358 -0.77331 0.0
C 2.129054 -0.68338 0.0
N 3.29829 -0.590359 0.0
C -0.027009 0.604696 0.0
C -1.552242 0.475642 0.0
H 0.359605 -1.357896 0.88306
H 0.359605 -1.357896 -0.88306
H 0.307477 1.173117 -0.881471
H 0.307477 1.173117 0.881471
H -1.912148 -0.06581 0.889601
H -1.912148 -0.06581 -0.889601
H -2.027318 1.467887 0.0
