32

C 0.017986 1.643265 0.009117
C -0.017688 0.135037 0.002428
O 1.313734 2.11395 0.003196
O -0.94673 2.396976 0.018082
C -1.426121 -0.453945 0.012719
C -1.426945 -1.985545 0.004512
C -2.833271 -2.592145 0.015907
C -2.841778 -4.123868 0.007296
C -4.248115 -4.730455 0.018008
C -4.248947 -6.262054 0.009656
C -5.657387 -6.851031 0.018979
C -5.693056 -8.359258 0.011885
O -6.988799 -8.829955 0.017824
O -4.728335 -9.112956 0.002592
H 0.554361 -0.205559 -0.877586
H 0.570509 -0.214338 0.868212
H 1.219115 3.101139 0.007589
H -1.967356 -0.081611 0.897054
H -1.984621 -0.072498 -0.856869
H -0.880038 -2.350517 -0.883308
H -0.861801 -2.360148 0.876742
H -3.379653 -2.227598 0.903852
H -3.39856 -2.217667 -0.855927
H -2.294962 -4.488414 -0.88038
H -2.276909 -4.498348 0.879406
H -4.795436 -4.365584 0.905603
H -4.812834 -4.355736 -0.854456
H -3.707143 -6.634346 -0.874345
H -3.69101 -6.643557 0.879581
H -6.230047 -6.510619 0.898662
H -6.244988 -6.501474 -0.847143
H -6.894174 -9.817142 0.013113
