26

C -0.016544 1.360774 0.007087
C 0.002848 -0.063698 -0.000152
C 1.211183 2.095473 0.000635
C -1.263675 2.062019 0.021203
C 1.249979 -0.764939 -0.014325
C -1.224876 -0.798402 0.006276
C 2.445075 1.365947 -0.013735
C 1.166239 3.501192 0.008281
C -2.477111 1.298536 0.027372
C -1.25627 3.46838 0.027967
C 2.463414 -0.001462 -0.020504
C 1.242581 -2.171309 -0.021105
C -2.458775 -0.06887 0.020621
C -1.179928 -2.204112 -0.001346
C -0.054296 4.176641 0.021596
C 0.04061 -2.879564 -0.01493
H 3.382344 1.930161 -0.018655
H 2.105247 4.062216 0.003369
H -3.429788 1.836473 0.038138
H -2.21055 4.003197 0.038239
H 3.416091 -0.539405 -0.031312
H 2.196868 -2.706085 -0.031847
H -3.396038 -0.633077 0.025515
H -2.11892 -2.765163 0.003538
H -0.06899 5.269754 0.027433
H 0.055283 -3.972679 -0.02036
