24

C -0.257585 -0.150174 0.059893
C 0.392352 -1.382873 -0.629257
C 1.851681 -1.386596 -0.155504
C 2.233384 0.10636 -0.184967
C 0.924767 0.876257 0.145305
C -0.726897 -0.542282 1.474843
C -1.442858 0.376008 -0.78197
C -2.158895 1.623773 -0.252389
H -0.145237 -2.318597 -0.407795
H 0.364865 -1.244775 -1.724408
H 2.508077 -2.009085 -0.783358
H 1.921148 -1.783183 0.870713
H 2.579945 0.375666 -1.195995
H 3.055686 0.349298 0.505312
H 0.776387 1.704267 -0.564707
H 0.967932 1.333289 1.145512
H 0.101687 -0.952871 2.072328
H -1.521561 -1.305817 1.435231
H -1.120839 0.324139 2.027634
H -2.180068 -0.438788 -0.897377
H -1.067749 0.585015 -1.799329
H -2.966616 1.927333 -0.936384
H -1.472298 2.480016 -0.15677
H -2.61731 1.453621 0.73344
