15

C 0.0 -2.403309 -0.455728
C 0.0 -1.189547 0.457069
O 0.0 0.0 -0.345132
C 0.0 1.189547 0.457069
C 0.0 2.403309 -0.455728
H -0.891287 -2.407767 -1.100961
H 0.0 -3.328299 0.141736
H 0.891287 -2.407767 -1.100961
H 0.891525 -1.195477 1.115706
H -0.891525 -1.195477 1.115706
H 0.891525 1.195477 1.115706
H -0.891525 1.195477 1.115706
H 0.0 3.328299 0.141736
H -0.891287 2.407767 -1.100961
H 0.891287 2.407767 -1.100961
