80

C -15.980948 -0.379463 -1.400502
C -14.721899 0.465503 -1.179573
C -13.43418 -0.364108 -1.105858
C -12.167192 0.470349 -0.886652
C -10.882668 -0.36472 -0.820553
C -9.6102 0.463583 -0.609034
C -8.330909 -0.38021 -0.552503
C -7.050132 0.438359 -0.353967
C -5.777389 -0.416121 -0.306626
C -4.48827 0.393536 -0.12657
C -3.220671 -0.469034 -0.085139
C -1.926028 0.337128 0.068454
H -16.123312 -1.1054 -0.583534
H -15.920159 -0.95002 -2.341428
H -16.884897 0.247224 -1.449369
H -14.831475 1.050278 -0.24922
H -14.629426 1.207667 -1.992025
H -13.327045 -0.950581 -2.036646
H -13.527407 -1.107947 -0.293679
H -12.271584 1.055013 0.045284
H -12.075876 1.214689 -1.698391
H -10.782507 -0.950052 -1.752568
H -10.973451 -1.108953 -0.008753
H -9.704729 1.049211 0.323201
H -9.520292 1.206852 -1.4219
H -8.243129 -0.967229 -1.484629
H -8.419967 -1.122976 0.260822
H -7.131338 1.027776 0.577018
H -6.961222 1.178148 -1.170148
H -5.704544 -1.008572 -1.236494
H -5.863828 -1.15389 0.511535
H -4.555917 0.990875 0.800376
H -4.402027 1.126329 -0.949378
H -3.163224 -1.073368 -1.008338
H -3.300815 -1.195895 0.743406
H -1.981206 0.94855 0.987016
H -1.84654 1.057577 -0.765899
C -0.658996 -0.52631 0.109099
C 0.635833 0.286254 0.227627
C 1.908969 -0.567871 0.273219
C 3.196793 0.260939 0.353032
H -0.61411 -1.150245 -0.801697
H -0.725856 -1.235185 0.95423
H 0.588763 0.918184 1.132798
H 0.701153 0.988498 -0.623266
H 1.946172 -1.21656 -0.620503
H 1.860303 -1.252726 1.13899
H 3.151579 0.916289 1.24164
H 3.244142 0.94098 -0.516677
C 4.481568 -0.574713 0.408988
C 5.756728 0.275854 0.459721
C 7.055548 -0.536947 0.525867
H 4.521021 -1.244988 -0.468544
H 4.449368 -1.237695 1.292254
H 5.70707 0.948782 1.33497
H 5.787789 0.938534 -0.42387
H 7.105836 -1.218667 -0.342292
H 7.03461 -1.187954 1.41835
C 8.316098 0.335849 0.56493
C 9.628033 -0.454874 0.634802
H 8.257402 1.014104 1.435589
H 8.333393 0.992551 -0.323414
H 9.690925 -1.13798 -0.231556
H 9.615941 -1.104122 1.528737
C 10.875616 0.436367 0.674274
C 12.19724 -0.338095 0.744519
H 10.807691 1.113123 1.545478
H 10.884297 1.093569 -0.213747
H 12.269189 -1.017926 -0.123874
H 12.190467 -0.990874 1.635958
C 13.436382 0.564432 0.788564
C 14.763418 -0.200386 0.858441
H 13.362349 1.239209 1.661062
H 13.441261 1.223524 -0.09833
H 14.840139 -0.875292 -0.012391
H 14.758807 -0.856088 1.74674
C 15.99287 0.71349 0.906219
H 16.049854 1.355124 0.011828
H 16.926692 0.132697 0.95875
H 15.964054 1.377039 1.785746
