17

C -1.944296 -1.3345 -1.125861
O -1.261157 -0.058407 -0.951904
P -0.000687 -0.044864 0.067772
O 1.212228 -0.482823 -0.915086
C 2.483595 -0.800836 -0.275947
C -0.522055 2.247985 1.221235
O 0.271711 1.54602 0.220481
O -0.154522 -0.825903 1.334357
H -1.303701 -2.03352 -1.682811
H -2.847195 -1.113767 -1.707719
H -2.213312 -1.760162 -0.14946
H 2.34122 -1.570761 0.494285
H 2.922395 0.104964 0.167411
H 3.134598 -1.174896 -1.074799
H -0.461919 1.731243 2.188941
H -1.568325 2.31793 0.890282
H -0.088578 3.252297 1.298823
