62

C -12.164745 -0.286672 -1.022633
C -10.878408 0.521538 -0.8255
C -9.606178 -0.335987 -0.850249
C -8.315779 0.468627 -0.654264
C -7.041766 -0.386104 -0.668681
C -5.755479 0.425608 -0.473163
C -4.477648 -0.423381 -0.470497
C -3.197143 0.396528 -0.270675
C -1.915216 -0.44564 -0.243879
C -0.640749 0.382787 -0.040008
C 0.644663 -0.453073 0.004965
C 1.915413 0.381633 0.20675
H -12.28653 -1.045252 -0.232074
H -12.16152 -0.81571 -1.989826
H -13.055604 0.360673 -1.001495
H -10.930021 1.065185 0.134299
H -10.808509 1.297988 -1.607662
H -9.55425 -0.882219 -1.809595
H -9.676239 -1.112248 -0.066591
H -8.372166 1.019405 0.302077
H -8.245435 1.241144 -1.441379
H -6.982807 -0.938757 -1.623702
H -7.111289 -1.156642 0.120396
H -5.820089 0.986124 0.476923
H -5.683741 1.190357 -1.267662
H -4.407817 -0.983253 -1.420564
H -4.550122 -1.188092 0.323968
H -3.275064 0.96831 0.671671
H -3.120283 1.152052 -1.073487
H -1.832054 -1.016172 -1.186518
H -1.992511 -1.201554 0.558509
H -0.729992 0.962819 0.896293
H -0.560331 1.13123 -0.849108
H 0.735671 -1.034027 -0.930586
H 0.565524 -1.200193 0.815383
H 1.822233 0.967359 1.139106
H 1.995478 1.124899 -0.60717
C 3.202584 -0.451031 0.258843
C 4.472661 0.384964 0.4596
C 5.759507 -0.448633 0.505762
C 7.033225 0.385039 0.692658
H 3.296381 -1.035511 -0.674263
H 3.122758 -1.19529 1.071827
H 4.38135 0.968754 1.393316
H 4.550708 1.129709 -0.353167
H 5.844766 -1.036974 -0.425695
H 5.685029 -1.189661 1.322198
H 6.960037 0.958033 1.634508
H 7.096457 1.138978 -0.112947
C 8.319606 -0.450746 0.704673
C 9.599584 0.380231 0.858108
C 10.884277 -0.458499 0.851521
H 8.378783 -1.038701 -0.228962
H 8.266332 -1.191966 1.52261
H 9.548533 0.962289 1.796009
H 9.649138 1.126839 0.044556
H 10.928753 -1.046116 -0.082151
H 10.840088 -1.198194 1.670337
C 12.161829 0.376359 0.989623
H 12.245889 1.118207 0.178276
H 13.063001 -0.255924 0.955763
H 12.179226 0.928555 1.943624
