11

C -0.444152 -1.10608 0.710515
C -0.670921 0.075311 -0.219234
S 0.767378 1.164339 -0.397351
O 1.352548 1.451477 0.919446
O 0.439523 2.224412 -1.360072
Cl 2.118798 -0.15104 -1.389021
H 0.328402 -1.78118 0.318697
H -1.38405 -1.672615 0.796593
H -0.147452 -0.771621 1.713503
H -1.434105 0.775039 0.155456
H -0.925969 -0.208043 -1.24853
