23

O -0.751712 1.715656 1.73275
C 0.311726 1.601279 0.744823
C 0.246009 0.231458 0.037907
C 0.443249 -0.891447 1.082584
O -0.643143 -1.059753 2.001299
C -1.479193 -1.250138 -1.296493
C -1.105356 0.119472 -0.716732
O 1.648741 -0.929533 -1.735193
C 1.469273 0.239411 -0.916596
H -0.530388 2.479308 2.306627
H 1.289107 1.712953 1.246031
H 0.207441 2.414688 0.004838
H 1.390149 -0.703939 1.63028
H 0.552329 -1.862856 0.575407
H -0.876164 -0.144956 2.287789
H -0.743596 -1.602204 -2.031674
H -1.900854 0.432585 -0.025158
H -1.096483 0.870316 -1.52649
H 1.363821 1.068981 -1.63137
H 2.389294 0.428432 -0.32971
H -2.456506 -1.184309 -1.800011
H -1.575904 -2.006387 -0.503487
H 1.84816 -1.679017 -1.13742
