24

N -4.420719 -0.156255 -0.14497
C -3.168021 0.629871 -0.078351
C -1.947673 -0.291623 -0.049542
C -0.612512 0.461141 -0.047983
C 0.612519 -0.462466 -0.03302
C 1.947538 0.290315 -0.052965
C 3.168271 -0.631198 -0.048261
N 4.42133 0.152544 -0.132618
H -5.218246 0.492541 -0.130438
H -4.510462 -0.698629 0.72522
H -3.126363 1.320182 0.789065
H -3.12532 1.260758 -0.981347
H -2.000203 -0.969145 -0.918227
H -2.004486 -0.938807 0.845199
H -0.569778 1.13615 0.825577
H -0.561951 1.116213 -0.936008
H 0.564515 -1.142232 -0.902455
H 0.56733 -1.112617 0.859041
H 2.000732 0.964031 0.822256
H 2.003306 0.941596 -0.941263
H 3.130401 -1.289111 -0.932096
H 3.122125 -1.295392 0.83913
H 5.218403 -0.496113 -0.098694
H 4.509261 0.718248 0.722751
