14

N -3.974618 1.289701 0.0
C -3.069617 0.544028 0.0
C -1.933122 -0.37692 0.0
C -0.584027 0.327418 0.0
C 0.583845 -0.32716 0.0
C 1.933081 0.376687 0.0
C 3.069455 -0.544469 0.0
N 3.974587 -1.288864 0.0
H -2.027509 -1.034158 -0.881823
H -2.027509 -1.034158 0.881823
H -0.60584 1.421425 0.0
H 0.605401 -1.421181 0.0
H 2.027937 1.033825 0.88189
H 2.027937 1.033825 -0.88189
