18

C -2.759854 -0.52371 0.0
C -2.156536 -1.797215 0.0
C -0.767809 -1.945004 0.0
C 0.030749 -0.786097 0.0
C -0.606681 0.472683 0.0
C -1.986495 0.643558 0.0
O 0.336852 1.486407 0.0
C 1.583354 0.856008 0.0
C 1.443478 -0.503543 0.0
C 2.769874 1.758193 0.0
H -3.849934 -0.444794 0.0
H -2.792294 -2.686738 0.0
H -0.312625 -2.9388 0.0
H -2.439903 1.636911 0.0
H 2.260845 -1.222238 0.0
H 3.39904 1.592841 -0.889017
H 3.39904 1.592841 0.889017
H 2.448898 2.808698 0.0
