13

C -1.807654 2.286011 0.023831
C -1.213317 1.113747 0.021377
C -0.609131 -0.053396 0.018058
C 0.89482 -0.273738 -0.071967
C 1.28635 -1.752079 0.023567
H -2.129825 2.767313 -0.907234
H -2.00908 2.825178 0.956976
H -1.238631 -0.951668 0.082018
H 1.393717 0.296418 0.728912
H 1.267054 0.148914 -1.020452
H 2.377566 -1.875992 -0.05093
H 0.824848 -2.340519 -0.785524
H 0.963282 -2.190191 0.981369
