22

C -3.660265 -0.487071 -0.005059
C -2.411368 0.400364 -0.026963
C -1.098239 -0.391562 0.017488
C 0.155198 0.492144 -0.008423
C 1.467946 -0.29992 0.022455
C 2.713576 0.591533 -0.007592
C 4.028101 -0.161976 0.012203
O 5.133232 0.369065 0.02079
H -3.684403 -1.166657 -0.87242
H -4.58201 0.114518 -0.028919
H -3.693797 -1.110614 0.903182
H -2.442157 1.099736 0.826668
H -2.424577 1.031305 -0.932797
H -1.068308 -1.09377 -0.834968
H -1.08308 -1.021322 0.925133
H 0.130204 1.187656 0.849292
H 0.135447 1.129394 -0.910527
H 1.494986 -0.996471 -0.833966
H 1.492699 -0.933846 0.926294
H 2.726939 1.292718 0.845275
H 2.723088 1.235557 -0.905163
H 3.94679 -1.280783 0.018016
