14

C -1.933417 -0.351794 -0.125224
C -0.617169 0.407497 -0.101546
C 0.610786 -0.475003 0.089658
C 1.958301 0.238878 -0.026328
H -1.922928 -1.072195 -0.961177
H -2.786495 0.325309 -0.265856
H -2.086354 -0.913114 0.808421
Br -0.713895 1.794385 1.373909
H -0.509755 1.037391 -0.994255
H 0.544706 -1.260994 -0.685628
H 0.532265 -0.993053 1.059258
H 2.063897 0.740806 -1.001606
H 2.787663 -0.478203 0.071465
H 2.072397 1.000092 0.75891
