15

C -0.692662 0.025266 0.0
C -0.012551 -1.197127 0.0
C 1.38771 -1.231729 0.0
C 2.12574 -0.04532 0.0
C 1.452475 1.182485 0.0
C 0.056154 1.216217 0.0
C -2.200432 0.156039 0.0
Cl -3.116253 -1.406788 0.0
H -0.584276 -2.127549 0.0
H 1.900354 -2.197743 0.0
H 3.218561 -0.073895 0.0
H 2.016458 2.119309 0.0
H -0.458473 2.182865 0.0
H -2.546403 0.698986 0.8899
H -2.546403 0.698986 -0.8899
