26

C -4.895136 -0.700713 0.0
C -3.762532 -1.525449 0.0
C -2.475662 -0.985625 0.0
C -2.311909 0.410932 0.0
C -3.445541 1.244413 0.0
C -4.725534 0.688374 0.0
N -1.051042 1.013915 0.0
N 0.101969 0.325484 0.0
N 1.11868 1.108218 0.0
C 2.371174 0.449107 0.0
C 2.56368 -0.9474 0.0
C 3.856106 -1.469353 0.0
C 4.973966 -0.621206 0.0
C 4.786619 0.765279 0.0
C 3.494817 1.295822 0.0
H -5.896399 -1.137259 0.0
H -3.880927 -2.612338 0.0
H -1.596791 -1.63133 0.0
H -3.317747 2.330998 0.0
H -5.594894 1.350901 0.0
H -0.968059 2.04162 0.0
H 1.697536 -1.611342 0.0
H 3.998877 -2.553749 0.0
H 5.982181 -1.043209 0.0
H 5.648485 1.437916 0.0
H 3.328085 2.375995 0.0
