23

C -2.493859 -0.809712 0.329653
C -1.284855 0.137572 0.251569
C -0.032721 -0.601317 -0.288532
C 1.30949 -0.275197 0.39946
C 2.414606 -1.210121 -0.116498
C -1.645823 1.381569 -0.577394
C 1.736872 1.193185 0.258394
H -2.733701 -1.22507 -0.663827
H -3.392474 -0.287747 0.696059
H -2.29816 -1.657124 1.005701
H -1.06118 0.468692 1.281935
H 0.062899 -0.418046 -1.374415
H -0.193198 -1.688293 -0.187681
H 1.176503 -0.480965 1.477985
H 3.369378 -1.0277 0.401659
H 2.589751 -1.060583 -1.195357
H 2.149167 -2.268868 0.033089
H -2.476358 1.939868 -0.116294
H -1.964884 1.092012 -1.592958
H -0.797592 2.073258 -0.684385
H 1.838611 1.477833 -0.80241
H 2.71168 1.364858 0.741232
H 1.015849 1.881896 0.723016
