34

C -3.721219 -0.234188 0.0
C -2.981064 0.228536 -1.260042
C -1.510253 -0.216357 -1.258742
C -0.739696 0.237711 0.0
C -1.510253 -0.216357 1.258742
C -2.981064 0.228536 1.260042
C 0.739696 -0.237711 0.0
C 1.510253 0.216357 -1.258742
C 2.981064 -0.228536 -1.260042
C 3.721219 0.234188 0.0
C 2.981064 -0.228536 1.260042
C 1.510253 0.216357 1.258742
H -3.788314 -1.337306 0.0
H -4.758267 0.140862 0.0
H -3.483341 -0.150804 -2.165359
H -3.025964 1.331082 -1.322207
H -1.023163 0.164943 -2.16813
H -1.464101 -1.319638 -1.323117
H -0.727393 1.345602 0.0
H -1.023163 0.164943 2.16813
H -1.464101 -1.319638 1.323117
H -3.025964 1.331082 1.322207
H -3.483341 -0.150804 2.165359
H 0.727393 -1.345602 0.0
H 1.023163 -0.164943 -2.16813
H 1.464101 1.319638 -1.323117
H 3.483341 0.150804 -2.165359
H 3.025964 -1.331082 -1.322207
H 3.788314 1.337306 0.0
H 4.758267 -0.140862 0.0
H 3.483341 0.150804 2.165359
H 3.025964 -1.331082 1.322207
H 1.464101 1.319638 1.323117
H 1.023163 -0.164943 2.16813
