23

O 4.811096 1.821736 -0.013323
C 4.732946 0.603434 0.01396
O 3.596213 -0.135809 0.025288
C 2.347333 0.638671 -0.010676
C 1.186049 -0.339281 0.015176
C -0.170661 0.377104 -0.020246
C -1.364661 -0.585126 0.01147
C -2.725542 0.120876 -0.024366
C -3.912639 -0.846734 0.010491
H 5.599373 -0.084076 0.035643
H 2.353095 1.256633 -0.920443
H 2.33843 1.317596 0.854423
H 1.259002 -0.961384 0.922506
H 1.271598 -1.02612 -0.843184
H -0.231896 1.006331 -0.925788
H -0.241677 1.072282 0.835234
H -1.303516 -1.212557 0.91866
H -1.294063 -1.2842 -0.841234
H -2.786767 0.7476 -0.931146
H -2.795095 0.819023 0.828258
H -3.897986 -1.530813 -0.853474
H -4.873034 -0.308609 -0.008957
H -3.8976 -1.466578 0.921729
