68

C -11.793311 0.141281 -0.185416
C -10.480506 0.9037 -0.390489
C -9.234837 0.049685 -0.118609
C -7.922338 0.816521 -0.317432
C -6.627516 -0.000344 -0.122909
C -5.444156 0.900372 -0.474292
O -4.228765 0.086418 -0.507493
C -3.060949 0.779967 -0.674491
C -1.87882 -0.166531 -0.68644
C -0.523425 0.540745 -0.631621
C 0.647349 -0.44594 -0.551728
C 2.002597 0.26022 -0.485057
C 3.168804 -0.678807 -0.25908
O 4.348769 0.013964 -0.236395
C 5.537639 -0.802629 0.015462
C 6.789517 0.074531 0.074463
C 8.016964 -0.863489 -0.023053
C 9.361087 -0.171064 -0.283857
C 10.528708 -1.157899 -0.415975
C 11.881129 -0.475378 -0.645809
O -3.003743 1.99814 -0.800533
O 3.089522 -1.893224 -0.107432
H -11.887399 -0.223402 0.85022
H -11.854719 -0.735661 -0.850372
H -12.667267 0.777624 -0.393701
H -10.463346 1.790349 0.267029
H -10.438014 1.293582 -1.42241
H -9.24863 -0.833435 -0.78163
H -9.290816 -0.342212 0.910456
H -7.904087 1.68069 0.371651
H -7.918496 1.246728 -1.334818
H -6.631045 -0.825049 -0.857887
C -6.477834 -0.611597 1.293932
H -5.306346 1.705663 0.262638
H -5.57161 1.368716 -1.461201
H -1.959845 -0.785443 -1.597044
H -1.994917 -0.8739 0.150877
H -0.50442 1.216293 0.239049
H -0.418195 1.193575 -1.512848
H 0.633545 -1.125991 -1.418856
H 0.536357 -1.093787 0.332478
H 2.014222 1.008843 0.325725
H 2.199405 0.835866 -1.405092
H 5.611711 -1.543278 -0.793867
H 5.385391 -1.355876 0.954977
C 6.861197 0.966835 1.332622
H 6.786869 0.722375 -0.820698
H 7.842313 -1.590348 -0.8353
H 8.089144 -1.462508 0.902577
H 9.589222 0.54142 0.526162
H 9.287433 0.432663 -1.205827
H 10.323399 -1.855618 -1.246369
H 10.581639 -1.781607 0.493203
H 11.871564 0.136403 -1.56243
H 12.692172 -1.212885 -0.747366
H 12.141012 0.191489 0.192488
C -6.928084 -2.072544 1.418544
C 5.883802 2.14688 1.399007
H -7.029437 0.012894 2.017933
H -5.42074 -0.557295 1.596116
H 7.882891 1.370178 1.409052
H 6.729963 0.324402 2.222046
H -6.332147 -2.722621 0.758401
H -7.985811 -2.21195 1.150753
H -6.794415 -2.439001 2.448154
H 4.83562 1.821607 1.424995
H 6.000949 2.808536 0.525662
H 6.074077 2.752159 2.299155
