68

C -11.890923 0.012404 0.028539
C -10.561545 0.773836 -0.009218
C -9.305112 -0.106735 0.019895
C -8.019994 0.729341 -0.020849
C -6.714572 -0.078205 0.005215
C -5.520279 0.86033 -0.041152
O -4.283303 0.07913 -0.017921
C -3.141782 0.834172 -0.068422
C -1.909084 -0.043963 -0.074405
C -0.59984 0.74001 0.034037
C 0.624141 -0.178457 -0.01627
C 1.953153 0.573237 0.078588
C 3.147511 -0.355044 0.011119
O 4.32938 0.33538 0.065302
C 5.510674 -0.526906 -0.002706
C 6.77932 0.305485 0.078838
C 7.997024 -0.626777 0.000215
C 9.369674 0.05206 0.07221
C 10.50558 -0.975304 -0.026387
C 11.924068 -0.399545 0.029449
O -3.141834 2.060055 -0.114529
O 3.084564 -1.576969 -0.082933
H -11.932332 -0.616261 0.936268
C -13.112648 0.94083 -0.003679
H -11.9407 -0.688212 -0.824622
H -10.52577 1.476069 0.843225
H -10.533911 1.407271 -0.91422
H -9.320852 -0.807396 -0.833627
H -9.311845 -0.734661 0.928541
H -8.025259 1.431119 0.831962
H -8.034742 1.362598 -0.925766
H -6.675923 -0.771359 -0.851501
H -6.664807 -0.697055 0.916391
H -5.512212 1.546803 0.818357
H -5.524052 1.477412 -0.951872
H -1.933103 -0.63909 -1.00419
H -2.005221 -0.783965 0.73771
H -0.603697 1.325235 0.968126
H -0.557964 1.481874 -0.779502
H 0.614852 -0.76662 -0.948111
H 0.576656 -0.920713 0.796919
H 2.022538 1.15408 1.014354
H 2.05271 1.319433 -0.728268
H 5.465211 -1.096857 -0.94241
H 5.45461 -1.253995 0.820834
H 6.792067 0.879188 1.020309
H 6.800235 1.040044 -0.743124
H 7.939677 -1.209157 -0.936618
H 7.928584 -1.371269 0.8137
H 9.459087 0.619568 1.015516
H 9.464682 0.793868 -0.740665
H 10.386723 -1.546353 -0.965217
H 10.386713 -1.716122 0.784976
H 12.060808 0.164641 0.969836
C 13.007348 -1.482624 -0.076356
H 12.059427 0.33446 -0.7853
C -14.455085 0.205496 0.035293
C 14.438181 -0.939925 -0.021814
H -13.063815 1.570163 -0.909784
H -13.054808 1.641394 0.848226
H 12.862322 -2.045844 -1.01534
H 12.862553 -2.216144 0.736387
H -14.567507 -0.474504 -0.825052
H -15.29974 0.911838 0.012433
H -14.554443 -0.400535 0.950753
H 15.17822 -1.750727 -0.112765
H 14.632335 -0.417578 0.929129
H 14.628077 -0.223956 -0.838056
