16

O -2.233352 0.783381 0.464507
C -0.937131 1.045381 -0.119719
C 0.01531 -0.085219 0.269774
C 1.452469 0.285294 -0.125637
O 2.437926 -0.668682 0.318691
C -0.4153 -1.434729 -0.317018
H -2.820796 1.522013 0.195632
H -0.545607 2.012495 0.246155
H -1.020446 1.106483 -1.221283
H -0.017894 -0.153817 1.373589
H 1.703681 1.29414 0.251887
H 1.556828 0.310162 -1.220964
H 2.391688 -0.686577 1.298963
H 0.279742 -2.229624 -0.012313
H -0.420373 -1.397291 -1.41912
H -1.426744 -1.70341 0.016857
