12

C -1.975422 -0.236591 -0.332922
C -0.894147 0.281676 0.267479
C 0.427495 -0.411056 0.444883
H -2.905147 0.33071 -0.431379
H -1.970625 -1.249583 -0.749992
H -0.952763 1.304656 0.661367
H 0.360889 -1.439042 0.053044
H 0.642744 -0.501921 1.525153
C 1.592051 0.335479 -0.22939
H 1.442447 0.398456 -1.318238
H 2.549231 -0.17675 -0.045054
H 1.683246 1.363967 0.155048
