36

C 2.271045 -0.775139 0.0
C 3.431423 0.235423 0.0
C 0.904023 -0.116276 0.0
C 0.270238 0.222111 1.218188
C 0.270238 0.222111 -1.218188
C 0.867711 -0.125265 2.56867
C -0.969014 0.876645 1.194522
C 0.867711 -0.125265 -2.56867
C -0.969014 0.876645 -1.194522
C 0.467256 -1.523281 3.069403
C -1.611346 1.216142 0.0
C 0.467256 -1.523281 -3.069403
C -2.9637 1.891003 0.0
C -4.132567 0.892416 0.0
H 2.371244 -1.435899 0.873481
H 2.371244 -1.435899 -0.873481
H 3.393881 0.887885 -0.885172
H 4.406502 -0.276976 0.0
H 3.393881 0.887885 0.885172
H 0.532687 0.624172 3.304052
H 1.964954 -0.049063 2.540734
H -1.439012 1.146333 2.146795
H 1.964954 -0.049063 -2.540734
H 0.532687 0.624172 -3.304052
H -1.439012 1.146333 -2.146795
H 0.905007 -1.729674 4.058924
H 0.804942 -2.311282 2.379555
H -0.626242 -1.610738 3.157022
H 0.804942 -2.311282 -2.379555
H 0.905007 -1.729674 -4.058924
H -0.626242 -1.610738 -3.157022
H -3.047201 2.545988 -0.88314
H -3.047201 2.545988 0.88314
H -5.103115 1.413484 0.0
H -4.097585 0.242029 0.887245
H -4.097585 0.242029 -0.887245
