19

C -0.438991 -0.293986 -0.017952
C 0.28914 -1.499094 -0.006487
C 1.68292 -1.523334 0.007641
C 2.39719 -0.3178 0.012404
C 1.699484 0.892357 0.005144
C 0.298478 0.897045 -0.009994
C -1.95752 -0.33554 -0.044168
C -2.679722 1.011622 0.02976
O 3.780459 -0.387739 0.026123
H -0.252349 -2.450721 -0.008498
H 2.229576 -2.469455 0.016208
H 2.247993 1.840429 0.011933
H -0.214613 1.861304 -0.014335
H -2.303082 -0.973889 0.787618
H -2.276879 -0.861404 -0.961525
H -3.769651 0.860891 0.013751
H -2.425214 1.66021 -0.823239
H -2.433655 1.557889 0.953873
H 4.126436 0.531213 0.021745
