14

N -2.168139 0.324352 -0.068509
C -0.926768 -0.428308 0.175872
C 0.371155 0.237485 -0.306498
C 1.604271 -0.631432 -0.070416
O 0.522814 1.549871 0.297759
H -2.308073 0.399678 -1.085247
H -2.001106 1.292998 0.238973
H -1.024576 -1.423492 -0.287883
H -0.846157 -0.605146 1.263853
H 0.276468 0.456515 -1.382045
H 2.512472 -0.119515 -0.419409
H 1.521332 -1.591873 -0.603652
H 1.72906 -0.85819 1.002379
H 0.737247 1.397057 1.244825
