27

C -3.657605 -0.543817 -0.583361
C -2.414456 -0.216319 0.25701
C -1.182754 -0.133022 -0.64494
O 0.0 0.0 0.155296
C 1.182754 0.133022 -0.64494
C 2.414456 0.216319 0.25701
C 3.657605 0.543817 -0.583361
C -2.607664 1.064936 1.078217
C 2.607664 -1.064936 1.078217
H -3.87385 0.259505 -1.30742
H -4.545095 -0.657742 0.058011
H -3.531312 -1.480931 -1.149006
H -2.240796 -1.052368 0.956393
H -1.270537 0.734029 -1.332391
H -1.105529 -1.043915 -1.271364
H 1.105529 1.043915 -1.271364
H 1.270537 -0.734029 -1.332391
H 2.240796 1.052368 0.956393
H 4.545095 0.657742 0.058011
H 3.531312 1.480931 -1.149006
H 3.87385 -0.259505 -1.30742
H -2.801948 1.928938 0.420456
H -1.713625 1.290292 1.676765
H -3.464348 0.968884 1.763981
H 1.713625 -1.290292 1.676765
H 3.464348 -0.968884 1.763981
H 2.801948 -1.928938 0.420456
