15

C -0.016425 1.461074 -0.126145
C -0.030141 -0.061777 0.077428
C 1.397442 2.013639 -0.101054
O -0.639497 1.812974 -1.355424
C -1.433158 -0.569644 0.329773
O 2.035973 1.812044 1.085596
O 1.90569 2.596503 -1.053637
O -1.622075 -1.816962 -0.207324
O -2.295042 0.019324 0.966499
H -0.572358 1.918161 0.71155
H 0.414009 -0.567888 -0.790132
H 0.567055 -0.325824 0.96519
H 0.070721 2.269354 -1.876046
H 2.933825 2.220549 0.978395
H -2.549019 -2.065526 0.045332
