16

C -1.144282 -0.648804 -0.08703
C -0.394312 -1.729372 0.180966
C 1.081671 -1.436065 0.038499
C 1.122936 0.110857 -0.03646
C -0.306863 0.562588 -0.446215
C -0.760307 1.876183 0.204
H -2.237901 -0.628297 -0.08817
H -0.784948 -2.721502 0.423688
H 1.480576 -1.904818 -0.881597
H 1.686176 -1.837548 0.869266
H 1.899869 0.490089 -0.716599
H 1.343074 0.515268 0.965388
H -0.354339 0.700315 -1.545241
H -1.784288 2.145577 -0.101998
H -0.098668 2.709918 -0.081992
H -0.748393 1.795614 1.303495
