16

C -1.838711 0.003683 0.0
C -1.157835 -1.216554 0.0
C 0.238363 -1.173075 0.0
C 0.955937 0.02157 0.0
C 0.263223 1.24642 0.0
C -1.148815 1.216473 0.0
H -2.931185 0.011886 0.0
H -1.673709 -2.175485 0.0
N 0.994214 -2.439196 0.0
N 0.949589 2.443699 0.0
H -1.705849 2.1578 0.0
O 2.2437 -2.375361 0.0
O 0.343076 -3.50615 0.0
H 2.045845 -0.016472 0.0
H 0.457437 3.33174 0.0
H 1.964721 2.469023 0.0
