44

C -8.312572 -0.732476 -0.221891
C -6.934904 -1.39325 -0.102103
C -5.777408 -0.387776 -0.059027
C -4.392694 -1.03928 0.04723
C -3.237214 -0.031653 0.087332
C -1.849957 -0.682637 0.156191
C -0.694384 0.325346 0.172255
C 0.694384 -0.325346 0.172255
C 1.849957 0.682637 0.156191
C 3.237214 0.031653 0.087332
C 4.392694 1.03928 0.04723
C 5.777408 0.387776 -0.059027
C 6.934904 1.39325 -0.102103
C 8.312572 0.732476 -0.221891
H -8.505173 -0.052741 0.62435
H -9.120461 -1.480948 -0.236939
H -8.392774 -0.137508 -1.146389
H -6.784329 -2.084471 -0.949823
H -6.905276 -2.020571 0.806009
H -5.924945 0.299085 0.793972
H -5.813487 0.246822 -0.963028
H -4.247208 -1.72526 -0.806673
H -4.355688 -1.674034 0.950845
H -3.369827 0.641252 0.953629
H -3.289069 0.617 -0.805794
H -1.72544 -1.363336 -0.705387
H -1.790229 -1.323135 1.054561
H -0.792483 0.981252 1.056215
H -0.781351 0.991293 -0.705535
H 0.781351 -0.991293 -0.705535
H 0.792483 -0.981252 1.056215
H 1.790229 1.323135 1.054561
H 1.72544 1.363336 -0.705387
H 3.289069 -0.617 -0.805794
H 3.369827 -0.641252 0.953629
H 4.355688 1.674034 0.950845
H 4.247208 1.72526 -0.806673
H 5.813487 -0.246822 -0.963028
H 5.924945 -0.299085 0.793972
H 6.905276 2.020571 0.806009
H 6.784329 2.084471 -0.949823
H 8.505173 0.052741 0.62435
H 9.120461 1.480948 -0.236939
H 8.392774 0.137508 -1.146389
