50

C 0.451924 0.608974 2.387159
C 0.400492 -0.866388 2.828496
C 1.872738 1.179602 2.330687
C -0.992413 -1.429306 2.828603
C 1.93289 2.612232 1.790152
C -1.450411 -2.331121 1.94808
C 3.356705 3.166171 1.669597
C -2.863439 -2.852439 1.863032
C 3.409443 4.581144 1.085303
C -3.543663 -2.371046 0.60499
C 4.836316 5.110402 0.952225
C -3.836699 -3.129815 -0.460794
C 4.92488 6.499588 0.370524
C -4.42988 -2.623953 -1.75163
O 6.235172 6.918204 0.27197
O 3.989324 7.204489 0.015612
C -3.422343 -2.648874 -2.874135
C -3.504233 -3.395706 -3.984636
C -2.482705 -3.433033 -5.084742
C -1.85808 -4.823633 -5.280026
H -0.015133 0.692508 1.390591
H -0.170767 1.220961 3.063618
H 1.036368 -1.465655 2.155209
H 0.844093 -0.954671 3.837543
H 2.329176 1.143615 3.33603
H 2.497389 0.527376 1.693307
H -1.682756 -1.031779 3.585382
H 1.447571 2.644439 0.798574
H 1.333301 3.276572 2.437902
H -0.763598 -2.71184 1.180397
H 3.839268 3.157524 2.663249
H 3.95732 2.485785 1.038787
H -2.857292 -3.956057 1.87303
H -3.431409 -2.522136 2.749612
H 2.925524 4.596051 0.095841
H 2.82173 5.270377 1.712673
H -3.763495 -1.295732 0.56769
H 5.352104 5.124913 1.927516
H 5.450943 4.446787 0.319349
H -3.591241 -4.199946 -0.435728
H -5.303673 -3.236463 -2.034075
H -4.79357 -1.592179 -1.602127
H 6.175451 7.827929 -0.117956
H -2.543766 -2.006122 -2.729943
H -4.377991 -4.049829 -4.115657
H -2.957526 -3.123056 -6.033961
H -1.692198 -2.693328 -4.878689
H -1.32636 -5.148693 -4.372817
H -2.626695 -5.58014 -5.502427
H -1.138786 -4.822702 -6.113384
