11

C -0.581355 1.269155 0.243345
C -0.138228 -0.011608 -0.420422
C 0.998371 -0.826782 0.092794
N -0.40482 -1.278725 0.32111
H -1.652102 1.457073 0.063143
H -0.014005 2.131242 -0.143765
H -0.429371 1.213145 1.331483
H -0.291353 -0.047317 -1.504675
H 1.519048 -0.510964 1.000868
H 1.616303 -1.375106 -0.624737
H -0.62249 -2.020114 -0.359145
