10

C -1.554164 0.603759 -0.08813
C -0.216793 0.533978 -0.078474
C 0.601805 -0.734841 -0.008111
O 2.015021 -0.512601 -0.184311
H -2.073025 1.564353 -0.137637
H -2.186023 -0.290086 -0.048157
H 0.371448 1.457801 -0.13274
H 0.317881 -1.421432 -0.81897
H 0.414355 -1.266084 0.943913
H 2.309495 0.065153 0.552617
