29

C 0.396735 -0.240831 0.190193
C -0.984784 -0.015349 -0.58125
C 0.945979 1.1189 0.715139
C 0.203257 -1.19666 1.387553
C 1.449124 -0.873516 -0.746437
C -1.540434 -1.341712 -1.148301
C -0.825076 0.955136 -1.772915
C -2.070293 0.570908 0.349535
C 2.256682 1.083329 1.510811
H 0.179837 1.589936 1.349794
H 1.08837 1.796954 -0.139969
H 1.166652 -1.404135 1.873341
H -0.207589 -2.16624 1.075147
H -0.464195 -0.775782 2.152755
H 1.114562 -1.839231 -1.148528
H 2.383221 -1.066197 -0.20043
H 1.697608 -0.220464 -1.595386
H -0.865286 -1.79743 -1.885307
H -2.495529 -1.152017 -1.661449
H -1.739768 -2.083693 -0.362843
H -0.526997 1.964197 -1.456224
H -1.786808 1.054837 -2.299644
H -0.089772 0.597773 -2.507943
H -1.795719 1.559146 0.743268
H -2.287467 -0.087464 1.20197
H -3.0096 0.697077 -0.210719
H 2.176932 0.482237 2.427748
H 2.53394 2.103616 1.817917
H 3.096419 0.686674 0.922176
