18

C -1.466719 -0.514157 -0.679913
C -0.126616 -0.237287 0.029643
N -0.098848 1.189428 0.430335
C 0.740196 2.20023 0.058121
O 0.656372 3.362878 0.475036
C -0.021709 -1.091695 1.307931
C 1.037777 -0.571336 -0.913565
H -1.541745 -1.572672 -0.973361
H -1.564284 0.104721 -1.583801
H -2.318424 -0.289033 -0.01899
H -0.814535 1.482151 1.102298
H 1.519056 1.887541 -0.663655
H 0.923405 -0.89354 1.834213
H -0.065309 -2.164288 1.064295
H -0.850183 -0.872609 1.999884
H 0.995384 0.012471 -1.844465
H 0.981912 -1.635157 -1.185661
H 2.014268 -0.397646 -0.438347
