19

C -2.401422 -0.426257 -0.237799
C -1.830575 -1.698059 -0.150408
C -0.449457 -1.827479 0.035085
C 0.389996 -0.70781 0.136597
C -0.192924 0.579903 0.050634
C -1.577178 0.69926 -0.138404
C 0.642227 1.828478 0.166251
O 1.401448 2.022691 -1.05724
C 1.876265 -0.891719 0.322802
H -3.478655 -0.309664 -0.382586
H -2.456802 -2.591741 -0.222561
H -0.006685 -2.826262 0.101196
H -2.015748 1.699537 -0.207035
H 1.33343 1.746787 1.025798
H -0.01458 2.696713 0.346972
H 1.969037 2.811252 -0.908381
H 2.435577 -0.509385 -0.544793
H 2.129309 -1.952638 0.458732
H 2.246737 -0.34361 1.205139
