18

C -1.911865 -0.701474 -0.035389
C -0.79875 0.331651 0.022129
O 0.479208 -0.378067 0.063616
C 1.58875 0.427566 0.048813
C 2.818985 -0.399727 0.072965
C 4.039833 0.156425 0.040581
O 1.544513 1.655156 0.017385
H -1.838421 -1.361194 0.844064
C -3.295428 -0.042635 -0.084231
H -1.764152 -1.336923 -0.923238
H -0.870971 0.969508 0.916345
H -0.801895 0.993434 -0.856851
H 2.682609 -1.48345 0.113049
H 4.946245 -0.453902 0.055165
H 4.154091 1.243082 -0.003082
H -4.089391 -0.802494 -0.13656
H -3.401477 0.610518 -0.965355
H -3.481884 0.572526 0.810597
