32

C -4.032263 0.030963 0.217019
C -2.669173 0.62804 -0.175369
C -1.489504 -0.344154 0.115109
C -0.124022 0.274903 -0.255003
C 1.109089 -0.57246 0.093313
C 2.430976 0.171887 -0.13717
C 3.677644 -0.659275 0.192937
C 4.991105 0.093646 -0.043293
C -2.505585 1.994777 0.513604
C -1.684087 -1.701473 -0.582856
H -4.282612 -0.871544 -0.357758
H -4.839635 0.75915 0.042844
H -4.054688 -0.235177 1.287666
H -2.683704 0.803912 -1.267738
H -1.484688 -0.525616 1.207798
H -0.015535 1.244101 0.256287
H -0.115122 0.502048 -1.33737
H 1.117979 -1.501101 -0.500587
H 1.049885 -0.887941 1.151002
H 2.440122 1.096312 0.468197
H 2.483735 0.503008 -1.190349
H 3.669166 -1.582701 -0.4123
H 3.627915 -0.988347 1.245881
H 5.086578 0.412879 -1.094273
H 5.86572 -0.532479 0.194145
H 5.051343 0.99924 0.582593
H -3.392018 2.623621 0.336911
H -1.634713 2.556524 0.148765
H -2.398602 1.879439 1.605926
H -1.712558 -1.580157 -1.679485
H -2.616806 -2.195032 -0.278073
H -0.865942 -2.396995 -0.348375
