19

C -1.216313 -0.02566 -0.319902
C -0.540111 -1.314694 0.171221
C 0.954596 -1.328958 -0.190041
C 1.68017 -0.081418 0.331713
C 0.993108 1.205702 -0.145902
C -0.501755 1.219202 0.218307
S -3.000555 -0.102864 0.178035
H -1.194381 -0.016123 -1.420903
H -0.655418 -1.383545 1.267402
H -1.046949 -2.193042 -0.258207
H 1.062834 -1.383248 -1.288057
H 1.421577 -2.242865 0.211377
H 2.734897 -0.092629 0.012391
H 1.688915 -0.100976 1.435938
H 1.10421 1.293609 -1.241624
H 1.486405 2.090496 0.287912
H -0.981434 2.129974 -0.174825
H -0.623049 1.25005 1.314373
H -3.366745 1.076989 -0.389208
