13

C -1.73177 -0.397795 -0.04291
C -0.481548 0.487065 -0.068586
C 0.821922 -0.313401 -0.045603
N 1.995888 0.584125 -0.127969
H -1.764662 -1.070753 -0.915117
H -2.650403 0.208152 -0.057898
H -1.764388 -1.027076 0.861333
H -0.497556 1.171994 0.797867
H -0.483271 1.128025 -0.964913
H 0.852696 -0.979516 -0.923557
H 0.829874 -0.971314 0.84761
H 2.851222 0.015039 -0.081602
H 2.021997 1.165456 0.721345
