18

C -2.764136 -0.504596 -0.054876
O -1.584891 0.23059 0.26647
C -0.397179 -0.534109 0.018695
C 0.839521 0.272047 0.417124
C 2.099436 -0.585316 0.230358
C 0.933895 1.592953 -0.357547
H -2.782632 -0.794469 -1.123965
H -3.621943 0.148939 0.153217
H -2.850051 -1.421968 0.560144
H -0.345808 -0.808903 -1.056003
H -0.437422 -1.479156 0.596547
H 0.736556 0.505641 1.491092
H 2.998182 -0.034453 0.546912
H 2.240215 -0.863532 -0.827716
H 2.05277 -1.515391 0.818955
H 0.031823 2.203366 -0.211929
H 1.0468 1.40712 -1.439239
H 1.804863 2.181236 -0.028241
