42

C 1.75616 1.871408 -0.236073
C 2.599491 1.076775 -1.030951
C 3.989145 1.172554 -0.928785
C 4.56811 2.07481 -0.027359
C 3.741388 2.874707 0.765899
C 2.347734 2.771181 0.662672
C -0.57389 2.367545 0.738154
C 0.237323 1.763109 -0.41392
C -0.177972 2.410806 -1.749829
O -0.157724 0.382617 -0.639405
O 0.157788 -0.37915 0.634349
C -0.237215 -1.75973 0.40777
C -4.569348 -2.082607 0.045011
C -3.744749 -2.882828 -0.750272
C -2.350808 -2.775454 -0.65475
C -1.756866 -1.869784 0.236182
C -2.597916 -1.073038 1.031547
C -3.987912 -1.17434 0.938611
C 0.185225 -2.410713 1.739679
C 0.56878 -2.360176 -0.750243
H 2.153052 0.362729 -1.725393
H 4.624683 0.539351 -1.554613
H 5.655666 2.151971 0.055763
H 4.178173 3.582529 1.475761
H 1.724538 3.405675 1.295765
H -0.281977 1.937191 1.704359
H -1.639755 2.162638 0.569799
H -0.441684 3.457981 0.785889
H -1.265079 2.332788 -1.895003
H 0.331055 1.927063 -2.594842
H 0.106989 3.472435 -1.741301
H -5.657084 -2.164438 -0.031055
H -4.183179 -3.59528 -1.45437
H -1.729861 -3.411091 -1.288978
H -2.149253 -0.353304 1.718635
H -4.621557 -0.539031 1.564317
H 1.273314 -2.334402 1.878289
H -0.102044 -3.471677 1.731033
H -0.317674 -1.927419 2.588757
H 1.634498 -2.146928 -0.591442
H 0.265681 -1.934703 -1.715058
H 0.444755 -3.451768 -0.794599
