28

C 4.054107 -0.09332 0.067231
C 5.209308 -1.074174 0.05253
O 6.392572 -0.753657 0.036069
H 4.202622 0.600033 -0.779119
H 4.171811 0.531103 0.9713
H 4.924239 -2.158876 0.059221
C 2.66908 -0.745706 0.020409
C 1.518241 0.266638 0.038381
C 0.129638 -0.382802 -0.007668
C -1.024389 0.626532 0.005355
C -2.412486 -0.02364 -0.041333
C -3.568927 0.983405 -0.033024
H 2.560949 -1.438033 0.874143
H 2.590896 -1.372396 -0.885632
H 1.62821 0.958275 -0.81603
H 1.599099 0.894924 0.94348
H 0.021008 -1.072304 0.848792
H 0.052718 -1.013547 -0.911489
H -0.915078 1.316203 -0.850968
H -0.947699 1.257397 0.909195
H -2.523178 -0.71125 0.816732
H -2.488607 -0.657621 -0.943292
C -4.951324 0.324981 -0.079031
H -3.458903 1.669827 -0.890925
H -3.493656 1.616148 0.868769
H -5.108929 -0.336922 0.788048
H -5.074554 -0.287164 -0.987535
H -5.756767 1.075946 -0.073608
