26

C -2.148087 -0.059374 0.842609
C -0.878064 0.555611 0.21607
C 0.269982 -0.517544 0.181024
C 1.618838 0.031781 -0.33772
C 2.819332 -0.893446 -0.099316
C -1.224087 1.079063 -1.192254
C -0.461185 1.750835 1.100785
C -0.112054 -1.798389 -0.583112
H -1.934193 -0.512214 1.824358
H -2.596767 -0.834282 0.204936
H -2.914894 0.715878 0.995415
H 0.430043 -0.806536 1.237305
H 1.833718 0.994172 0.148883
H 1.5379 0.246387 -1.416482
H 3.756487 -0.403455 -0.405245
H 2.746687 -1.833061 -0.666623
H 2.917037 -1.155412 0.966948
H -1.565101 0.272264 -1.858048
H -0.362583 1.56991 -1.670151
H -2.034842 1.822469 -1.137888
H -1.311572 2.434567 1.247264
H 0.35208 2.340907 0.655196
H -0.129332 1.416482 2.097386
H -0.2275 -1.607944 -1.661815
H -1.047737 -2.242251 -0.217786
H 0.665892 -2.566417 -0.471739
