33

C -1.165199 -0.325414 0.069201
C -2.620645 -0.76143 -0.0689
C -0.419048 -0.682089 1.199581
C -0.53521 0.43942 -0.924676
C -3.511828 0.472734 -0.035651
C -2.884789 -1.585532 -1.336704
C 0.918349 -0.29895 1.327945
C 0.799632 0.819624 -0.791872
O -3.864049 1.131563 -1.00584
O -3.877326 0.80108 1.24798
C 1.557281 0.454838 0.333892
C 3.01075 0.847427 0.446936
C 3.971322 0.024255 -0.44736
C 5.380325 0.627377 -0.415136
C 3.995521 -1.456669 -0.053502
H -2.868481 -1.361053 0.819323
H -0.89404 -1.265698 1.993457
H -1.100122 0.751439 -1.80637
H -3.924011 -1.945965 -1.360225
H -2.212487 -2.454674 -1.36642
H -2.719253 -0.982662 -2.238753
H 1.477097 -0.588914 2.222201
H 1.266236 1.420434 -1.578358
H -4.411073 1.632107 1.154131
H 3.122339 1.912972 0.182802
H 3.338776 0.754039 1.496336
H 3.59481 0.093702 -1.483856
H 6.065949 0.071666 -1.073125
H 5.802291 0.595944 0.603056
H 5.378807 1.679683 -0.740234
H 4.655052 -2.033116 -0.720438
H 2.993495 -1.90784 -0.0979
H 4.37353 -1.5833 0.974479
