21

C -3.302979 -0.462524 0.649394
C -2.33229 0.146509 -0.047325
C -1.050838 -0.501289 -0.489742
C 0.241029 0.125539 0.095785
C 1.448252 -0.778334 -0.228427
C 2.767786 -0.370736 0.435558
C 0.446587 1.567474 -0.390427
H -4.215682 0.063519 0.943142
H -3.222709 -1.513006 0.949937
H -2.474773 1.197481 -0.32361
H -0.983588 -0.455317 -1.593456
H -1.081383 -1.570927 -0.223909
H 0.12353 0.148817 1.194597
H 1.58371 -0.816627 -1.324575
H 1.200101 -1.808827 0.07895
H 3.121055 0.613099 0.091257
H 3.562154 -1.098263 0.208062
H 2.66679 -0.32302 1.532271
H 0.577603 1.600684 -1.485585
H 1.335975 2.026862 0.065036
H -0.410329 2.208886 -0.136932
