13

N 0.0 0.0 0.485664
C 1.392804 0.0 0.041313
C -0.696402 -1.206204 0.041313
C -0.696402 1.206204 0.041313
H 1.908406 -0.890299 0.432771
H 1.908406 0.890299 0.432771
H 1.497583 0.0 -1.068744
H -0.183182 -2.097877 0.432771
H -0.748791 -1.296945 -1.068744
H -1.725224 -1.207579 0.432771
H -0.183182 2.097877 0.432771
H -1.725224 1.207579 0.432771
H -0.748791 1.296945 -1.068744
