14

C -2.503485 -0.137314 0.097131
C -1.203853 0.620321 -0.022225
O -0.137679 -0.237679 0.012815
C 1.175942 0.400137 -0.095154
C 2.228518 -0.686199 0.010042
O -1.097135 1.836163 -0.137563
H -2.516073 -0.734126 1.021559
H -2.61225 -0.83964 -0.743736
H -3.339368 0.57135 0.097741
H 1.266601 1.147167 0.706345
H 1.224328 0.933898 -1.055425
H 3.230448 -0.236377 -0.070046
H 2.119378 -1.426577 -0.796215
H 2.164627 -1.211123 0.974731
