33

C -6.02136 0.106879 -0.078748
C -4.678461 0.843292 -0.10434
C -3.464998 -0.092361 -0.034982
C -2.117168 0.638035 -0.061301
C -0.903934 -0.298088 0.00228
C 0.443561 0.432946 -0.035255
C 1.655845 -0.504827 0.021539
C 3.004007 0.225633 -0.02355
C 4.210938 -0.723133 0.022229
C 5.548325 0.015058 -0.0298
S 7.03257 -1.079862 -0.051966
H -6.116811 -0.584193 -0.932406
H -6.868384 0.809253 -0.124122
H -6.134001 -0.489374 0.841684
H -4.635628 1.556653 0.737461
H -4.612496 1.456588 -1.020107
H -3.508766 -0.80825 -0.875744
H -3.530876 -0.705245 0.882149
H -2.072768 1.349858 0.782719
H -2.054345 1.255051 -0.9757
H -0.952091 -1.015504 -0.836703
H -0.962348 -0.908713 0.921093
H 0.494483 1.146583 0.806836
H 0.499984 1.047539 -0.951542
H 1.602914 -1.221529 -0.817512
H 1.602556 -1.115378 0.940515
H 3.062082 0.936616 0.820111
H 3.055603 0.840948 -0.939511
H 4.163308 -1.436574 -0.816686
H 4.166981 -1.331287 0.942001
H 5.651107 0.729853 0.800185
H 5.63893 0.593395 -0.962353
H 6.801241 -1.669864 1.151527
