18

C -2.101592 -0.687807 0.223318
C -1.023856 0.15381 -0.490671
C 0.324184 -0.518977 -0.375259
C 1.46665 0.005865 0.094752
C 2.777334 -0.722406 0.188202
C -1.049726 1.610152 -0.012551
H -2.116767 -1.723267 -0.152062
H -3.104065 -0.258015 0.068315
H -1.912472 -0.72796 1.30819
H -1.284712 0.152425 -1.567365
H 0.34125 -1.565102 -0.712513
H 1.474542 1.047005 0.437703
H 3.561997 -0.212753 -0.397789
H 2.695398 -1.756125 -0.180554
H 3.140793 -0.759429 1.230182
H -2.059194 2.034574 -0.125428
H -0.355124 2.240653 -0.588392
H -0.774641 1.687358 1.051921
