10

C -1.029049 -0.594992 0.041341
C -0.067153 0.573196 -0.0513
N 1.394575 0.173164 0.002378
O 2.216628 1.109589 0.0107
O 1.680529 -1.038068 0.027549
H -0.883567 -1.302816 -0.785321
H -2.058912 -0.208606 -0.007141
H -0.906945 -1.141002 0.986565
H -0.184149 1.296093 0.767244
H -0.161957 1.133441 -0.992016
