23

C -0.060307 0.6103 -0.635451
C 0.004025 -0.897601 -0.609662
C 1.10338 1.394071 -0.601988
C -1.301374 1.263997 -0.679791
C 0.109866 -1.486275 0.826253
C 1.026409 2.788612 -0.612582
C -1.382664 2.658833 -0.688683
C -0.181592 -2.982745 0.756457
N 1.418278 -1.18844 1.414917
C -0.215936 3.427244 -0.654935
O -1.528563 -3.253149 0.757372
O 0.667535 -3.862726 0.679698
H -0.894844 -1.311695 -1.091867
H 0.871781 -1.259334 -1.184701
H 2.078113 0.903011 -0.561256
H -2.219031 0.668864 -0.717791
H -0.671044 -1.014424 1.440092
H 1.944839 3.381226 -0.586906
H -2.361233 3.145417 -0.726733
H 1.374488 -1.376013 2.426177
H 2.083734 -1.889317 1.055505
H -0.273439 4.518958 -0.665113
H -1.592421 -4.238816 0.660987
