27

C 7.173503 6.883556 -0.783877
O 8.186976 6.011983 -1.087302
O 7.218647 8.09115 -1.012159
C 6.016999 6.196283 -0.146066
C 9.387223 6.608599 -1.673718
C 4.893934 6.970676 0.188635
C 6.016876 4.82155 0.140466
C 10.390109 7.032305 -0.609604
C 3.789598 6.379682 0.800299
C 4.909912 4.233545 0.753421
C 10.91223 5.893395 0.272291
C 3.79539 5.01032 1.085226
C 11.9272 6.366564 1.315888
H 9.084722 7.463927 -2.290829
H 9.793084 5.817069 -2.319145
H 4.911932 8.038145 -0.039215
H 6.88873 4.219766 -0.117782
H 9.932749 7.818221 0.013085
H 11.234794 7.514586 -1.1339
H 2.919664 6.989035 1.058207
H 4.91637 3.16287 0.973879
H 11.371878 5.119409 -0.367132
H 10.063541 5.404602 0.77764
H 2.92859 4.547765 1.564696
H 12.805663 6.833534 0.84201
H 12.287406 5.530577 1.934328
H 11.483874 7.11314 1.993629
