13

C -1.516407 -0.589361 -0.099272
C -0.298769 0.243106 0.274298
C 1.006933 -0.357987 -0.244204
O 2.12389 0.535227 -0.015109
O -0.467387 1.56875 -0.265385
H -1.605171 -0.675486 -1.193188
H -2.432313 -0.114867 0.28078
H -1.449751 -1.600804 0.331585
H -0.232575 0.313342 1.381301
H 0.954178 -0.476133 -1.335971
H 1.194093 -1.347187 0.209012
H 2.279036 0.555123 0.954708
H 0.444243 1.946277 -0.278555
