14

Cl -3.386616 -0.438304 0.0
C -1.837423 0.521176 0.0
C -0.610947 -0.379587 0.0
C 0.697239 0.427776 0.0
C 1.944199 -0.463974 0.0
H -1.881401 1.159162 -0.892336
H -1.881401 1.159162 0.892336
H -0.645898 -1.038031 0.883089
H -0.645898 -1.038031 -0.883089
H 0.720401 1.09152 -0.881531
H 0.720401 1.09152 0.881531
H 2.865597 0.138296 0.0
H 1.970874 -1.115343 0.888401
H 1.970874 -1.115343 -0.888401
