20

C -1.259449 -1.243192 -0.002852
C -0.740882 -2.537742 0.004283
C 0.649614 -2.697473 0.016443
C 1.470131 -1.574743 0.024827
C 0.946825 -0.259909 0.021766
C -0.461477 -0.083146 0.00393
C -1.244732 1.234019 -0.012077
C -0.545765 2.599507 -0.046052
N 1.858643 0.788054 0.039602
H -2.346464 -1.108483 -0.016287
H -1.408561 -3.402531 -0.001348
H 1.099198 -3.69395 0.01952
H 2.558066 -1.699611 0.036475
H -1.912646 1.225555 0.867145
H -1.924644 1.192003 -0.880861
H -1.306447 3.39511 -0.066084
H 0.073789 2.735644 -0.946139
H 0.069095 2.782465 0.849272
H 1.57231 1.756528 0.040762
H 2.853398 0.591896 0.047675
