10

O -1.816675 -0.438442 -0.184589
C -0.649527 0.403096 -0.140937
C 0.649527 -0.403096 -0.140937
O 1.816675 0.438442 -0.184589
H -1.806669 -0.991988 0.62633
H -0.68094 1.07602 0.738785
H -0.694968 1.032435 -1.039588
H 0.694968 -1.032435 -1.039588
H 0.68094 -1.07602 0.738785
H 1.806669 0.991988 0.62633
