20

C -1.86377 0.140352 -0.309635
C -1.177226 -1.169245 0.102265
C 0.297061 -1.193632 -0.334358
C 1.048785 0.022519 0.20688
C 0.383954 1.335804 -0.218293
C -1.093684 1.361991 0.211184
O 3.171572 -1.046754 0.227745
O 2.402641 0.120496 -0.297919
H -2.903022 0.161995 0.057514
H -1.922179 0.190165 -1.411624
H -1.23827 -1.284577 1.19962
H -1.70702 -2.034914 -0.326598
H 0.364184 -1.176917 -1.435721
H 0.790975 -2.115414 0.005027
H 1.093193 -0.024174 1.311422
H 0.457017 1.42795 -1.315149
H 0.932645 2.186921 0.213591
H -1.559968 2.294926 -0.144091
H -1.151583 1.388411 1.313815
H 3.674694 -0.585903 0.944326
