22

C 3.436304 0.0 0.241603
C 3.048255 0.0 -1.113454
C 1.697555 0.0 -1.467265
C 0.724794 0.0 -0.456455
C 1.137756 0.0 0.907359
C 2.489876 0.0 1.269258
N 0.0 0.0 1.708336
C -1.137756 0.0 0.907359
C -0.724794 0.0 -0.456455
C -1.697555 0.0 -1.467265
C -3.048255 0.0 -1.113454
C -3.436304 0.0 0.241603
C -2.489876 0.0 1.269258
H 4.499335 0.0 0.496878
H 3.81431 0.0 -1.89293
H 1.401262 0.0 -2.519631
H 2.799654 0.0 2.317698
H 0.0 0.0 2.725541
H -1.401262 0.0 -2.519631
H -3.81431 0.0 -1.89293
H -4.499335 0.0 0.496878
H -2.799654 0.0 2.317698
