12

S -2.363927 0.545748 0.027161
C -1.19835 -0.735692 -0.007803
C 0.099975 -0.264232 -0.022014
C 0.132907 1.166453 -0.004872
C -1.115805 1.745047 0.023238
C 1.328192 -1.136462 -0.010605
H -1.535573 -1.771458 -0.014799
H 1.058099 1.74679 -0.012553
H -1.377735 2.801703 0.034993
H 2.161568 -0.656036 -0.546362
H 1.139839 -2.110274 -0.486395
H 1.67081 -1.331589 1.02001
