32

C -4.731446 0.185817 -0.217515
C -3.378436 0.907903 -0.30829
C -2.226256 -0.047542 0.061202
C -0.812896 0.491626 -0.197199
C 0.291459 -0.536201 0.084621
C 1.707337 -0.010526 -0.185054
C 2.811526 -1.040158 0.087112
C 4.227762 -0.517894 -0.18812
C 5.32296 -1.556701 0.077971
C -3.388517 2.181937 0.551049
H -4.751925 -0.713556 -0.853531
H -5.55843 0.839995 -0.53634
H -4.94194 -0.132879 0.817343
H -3.230692 1.211765 -1.361317
H -2.354551 -0.984185 -0.510431
H -2.323376 -0.330692 1.125752
H -0.631372 1.388976 0.418155
H -0.739451 0.823878 -1.248575
H 0.115168 -1.437256 -0.530188
H 0.220127 -0.870252 1.135296
H 1.886813 0.888339 0.432022
H 1.77487 0.326719 -1.235076
H 2.631251 -1.939597 -0.52922
H 2.74645 -1.377663 1.137316
H 4.411757 0.377542 0.431187
H 4.290614 -0.177817 -1.236696
H 6.325256 -1.150358 -0.129671
H 5.188113 -2.450477 -0.553077
H 5.311208 -1.890131 1.128721
H -4.223042 2.842733 0.267635
H -2.459708 2.762047 0.445599
H -3.510636 1.93461 1.619318
