19

C -0.299672 1.813373 0.072175
N -1.411001 1.00579 0.106331
C -1.540212 -0.38016 -0.350034
C -0.660432 -1.386562 0.402851
C 0.827402 -1.337004 0.029383
C 1.533738 -0.000745 0.299902
C 0.980179 1.206657 -0.484801
O -0.349443 2.984399 0.485546
H -2.23823 1.469696 0.485618
H -1.341402 -0.44306 -1.435221
H -2.597489 -0.647245 -0.215571
H -1.044879 -2.398469 0.190319
H -0.787218 -1.22216 1.486281
H 0.933834 -1.584851 -1.042449
H 1.35508 -2.134966 0.577715
H 2.597562 -0.115455 0.035674
H 1.51193 0.227492 1.379019
H 0.819368 0.918052 -1.539739
H 1.710886 2.025218 -0.483
