19

C -2.829657 -0.489223 0.023737
C -1.51105 0.05153 0.567967
C -0.268178 -0.450039 -0.150685
C 1.056902 0.216009 0.232141
C 2.205849 -0.797907 0.285564
C 1.343873 1.344396 -0.781313
O -0.321246 -1.329605 -1.01274
H -2.971899 -0.203293 -1.028877
H -3.680385 -0.101122 0.604392
H -2.852504 -1.587269 0.065456
H -1.384914 -0.209781 1.635863
H -1.487678 1.156099 0.555269
H 0.930783 0.678193 1.226162
H 3.150987 -0.295188 0.543944
H 2.32937 -1.294395 -0.687268
H 2.020033 -1.579398 1.037983
H 1.47163 0.930265 -1.79271
H 2.268545 1.875894 -0.507985
H 0.529538 2.084832 -0.816902
