18

C -0.530718 0.349992 0.222109
C -0.571167 -1.160141 0.177288
C 0.86398 0.964871 -0.003073
C -0.312017 -1.807643 -1.156816
C -0.843388 -1.886391 1.273314
C 0.845202 2.493784 0.021898
H -1.216942 0.754116 -0.546064
H -0.920204 0.695216 1.193546
H 1.550115 0.587016 0.773167
H 1.272893 0.619515 -0.96639
H -0.355287 -2.903697 -1.095083
H -1.054024 -1.476268 -1.904385
H 0.675223 -1.528875 -1.560328
H -1.04459 -1.409696 2.237101
H -0.874372 -2.979506 1.245668
H 0.189945 2.900654 -0.764647
H 0.474277 2.874459 0.987028
H 1.851075 2.912594 -0.134332
