39

C -2.568715 0.892391 1.07487
C -1.828362 0.955094 -0.277945
C -0.224461 0.699761 -0.217291
C 0.357931 1.242789 -1.545301
C 0.289238 1.589824 0.944143
C 0.301626 -0.827552 0.010758
C 0.326802 -1.619815 -1.317571
C -0.614736 -1.596724 0.987091
C 1.761229 -0.873812 0.659313
C 2.91103 -0.211181 -0.127397
C 2.241337 -2.303974 1.000501
C -2.139518 2.362948 -0.859378
S -2.770032 -0.102241 -1.521588
H -2.514153 -0.07986 1.571819
H -3.630641 1.121645 0.913829
H -2.171247 1.647176 1.770048
H -0.206864 0.869975 -2.411375
H 1.400877 0.948749 -1.688494
H 0.333356 2.340632 -1.570828
H 0.064501 1.163691 1.931653
H -0.157644 2.59234 0.914391
H 1.374062 1.735352 0.885641
H 1.085335 -1.24957 -2.019807
H -0.641095 -1.577864 -1.830445
H 0.552775 -2.678449 -1.123962
H -0.289041 -2.639364 1.082145
H -1.65087 -1.64 0.636476
H -0.613692 -1.159964 1.997077
H 1.687343 -0.349819 1.625336
H 2.801697 0.871952 -0.255612
H 3.038259 -0.657903 -1.125561
H 3.858023 -0.37029 0.41066
H 3.222098 -2.244394 1.496314
H 2.377159 -2.923187 0.100908
H 1.576342 -2.841667 1.687394
H -3.217723 2.553597 -0.776116
H -1.869783 2.458977 -1.918571
H -1.619727 3.155741 -0.303897
H -2.832717 -1.255003 -0.809226
