15

C -0.702852 0.0 -1.893052
C -1.428615 0.0 -0.694478
C -0.698445 0.0 0.492723
C 0.698445 0.0 0.492723
C 1.428615 0.0 -0.694478
C 0.702852 0.0 -1.893052
C 1.158335 0.0 1.898045
O 0.0 0.0 2.718962
C -1.158335 0.0 1.898045
O 2.275697 0.0 2.367658
O -2.275697 0.0 2.367658
H -1.23592 0.0 -2.846999
H -2.5204 0.0 -0.683378
H 2.5204 0.0 -0.683378
H 1.23592 0.0 -2.846999
