59

C -6.393949 0.005199 -0.031279
C -5.14837 0.901375 -0.017293
C -3.839467 0.102146 -0.006208
C -2.562544 0.953332 0.003173
C -1.289976 0.09673 0.018964
C 0.027168 0.88324 0.019217
C 1.254912 -0.036338 0.043639
C 2.611257 0.678922 0.026871
C 3.787585 -0.305194 0.055996
C 5.177712 0.340647 0.017425
C 6.309175 -0.694366 0.048497
C 7.720947 -0.09854 -0.004234
C 8.81717 -1.170179 0.028786
C 10.232812 -0.590479 -0.028274
C 11.323601 -1.64967 -0.03933
O 12.597567 -1.186676 0.238218
O 11.157334 -2.830174 -0.286257
H -6.365368 -0.66652 0.845402
C -7.725286 0.765632 -0.038293
H -6.351497 -0.657146 -0.914576
H -5.182613 1.565696 0.864655
H -5.165634 1.568273 -0.897706
H -3.81848 -0.566102 -0.885701
H -3.832512 -0.565906 0.873615
H -2.570114 1.622792 0.881677
H -2.552743 1.614829 -0.881338
H -1.302579 -0.578948 -0.854955
H -1.313561 -0.564169 0.903951
H 0.054154 1.561294 0.890801
H 0.069474 1.534297 -0.872188
H 1.204108 -0.723336 -0.820246
H 1.201105 -0.682262 0.938409
H 2.68006 1.364923 0.890124
H 2.682554 1.31577 -0.872988
H 3.692502 -1.00247 -0.795813
H 3.708131 -0.93246 0.962044
H 5.288071 1.033407 0.870963
H 5.270838 0.962716 -0.890832
H 6.181567 -1.395605 -0.795114
H 6.211729 -1.307395 0.962256
H 7.856592 0.597772 0.84288
H 7.828627 0.513165 -0.918217
H 8.689119 -1.871716 -0.809672
H 8.718298 -1.777686 0.942978
H 10.40394 0.103044 0.813974
H 10.361609 0.015586 -0.944126
H 12.54395 -0.219528 0.41166
C -8.951387 -0.156528 -0.056957
C -10.294216 0.583609 -0.063444
C -11.505471 -0.355089 -0.08616
H -7.759334 1.43646 -0.915418
H -7.775954 1.425261 0.846534
H -8.913325 -0.830274 0.818088
H -8.89704 -0.815408 -0.942451
H -10.334464 1.255915 -0.938233
H -10.353042 1.239194 0.822939
H -11.496324 -0.999048 -0.980733
H -12.453001 0.205791 -0.090271
H -11.515414 -1.017802 0.794573
