15

C 2.431784 -0.315518 -0.159555
C 1.16154 -0.151372 0.64616
O 2.245742 -0.298935 -1.508813
O 3.522678 -0.45232 0.378701
O 0.0 0.0 -0.163145
C -1.16154 0.151372 0.64616
C -2.431784 0.315518 -0.159555
O -2.245742 0.298935 -1.508813
O -3.522678 0.45232 0.378701
H 1.084479 -1.03807 1.303951
H 1.311649 0.723777 1.306209
H 3.155948 -0.421412 -1.88508
H -1.311649 -0.723777 1.306209
H -1.084479 1.03807 1.303951
H -3.155948 0.421412 -1.88508
