24

C -3.03896 -0.011945 -0.654123
C -1.702538 0.688929 -0.371371
C -0.580009 -0.347184 -0.292061
O 0.683514 0.31635 -0.145403
C 1.830071 -0.554291 -0.28915
C 2.008137 -1.486155 0.912126
C 3.036842 0.353439 -0.496952
C -1.773134 1.549607 0.897575
H -3.318701 -0.688792 0.170554
H -2.999847 -0.609023 -1.579098
H -3.850873 0.722874 -0.765906
H -1.470195 1.350247 -1.224286
H -0.568139 -0.963699 -1.212509
H -0.765728 -1.029733 0.560177
H 1.678391 -1.168888 -1.199161
H 2.902896 -2.113996 0.777832
H 1.150122 -2.161817 1.041631
H 2.131122 -0.902462 1.837767
H 2.880762 1.013188 -1.362332
H 3.944778 -0.244146 -0.671692
H 3.204484 0.983011 0.390592
H -2.558402 2.316978 0.810472
H -0.81669 2.056622 1.084872
H -2.007903 0.930888 1.780446
