28

C 0.439438 0.004769 -5.038768
C -0.438878 -0.01847 -3.783248
C 0.362631 0.071382 -2.47945
C -0.510241 0.035302 -1.224993
N 0.294225 0.143097 0.0
C -0.510241 0.035302 1.224993
C 0.362631 0.071382 2.47945
C -0.438878 -0.01847 3.783248
C 0.439438 0.004769 5.038768
H -0.166432 -0.065137 -5.955376
H 1.150459 -0.837121 -5.045251
H 1.028757 0.933888 -5.09917
H -1.045749 -0.94069 -3.777792
H -1.161284 0.815483 -3.824819
H 0.963007 0.996533 -2.467879
H 1.088518 -0.76203 -2.442038
H -1.1388 -0.88392 -1.236842
H -1.212828 0.885725 -1.237903
H 0.988576 -0.614524 0.0
H -1.1388 -0.88392 1.236842
H -1.212828 0.885725 1.237903
H 0.963007 0.996533 2.467879
H 1.088518 -0.76203 2.442038
H -1.045749 -0.94069 3.777792
H -1.161284 0.815483 3.824819
H 1.150459 -0.837121 5.045251
H -0.166432 -0.065137 5.955376
H 1.028757 0.933888 5.09917
