25

C -1.213049 0.477429 -0.407024
O 0.004998 -0.118112 0.002792
C 1.169373 0.676129 0.130374
O 1.139111 1.846326 0.44551
O -1.262555 1.420636 -1.166598
C -2.372957 -0.27745 0.190423
C -3.741458 0.162734 -0.332743
C -4.894147 -0.590303 0.339053
C 2.391521 -0.170803 -0.117046
C 3.714203 0.54315 0.168146
C 4.928633 -0.352478 -0.09296
H -2.305224 -0.148888 1.285892
H -2.200992 -1.354528 0.02413
H -3.775723 0.01194 -1.42317
H -3.852991 1.246452 -0.176525
H -4.824275 -1.677028 0.169424
H -5.865332 -0.255657 -0.055563
H -4.904553 -0.424588 1.428609
H 2.33969 -0.507794 -1.168003
H 2.292224 -1.094356 0.478581
H 3.717564 0.89329 1.212348
H 3.772214 1.451472 -0.450742
H 5.866893 0.184643 0.111964
H 4.962937 -0.69073 -1.14148
H 4.913896 -1.251487 0.544606
