21

C -2.291208 -1.678007 -0.115925
C -2.452833 -0.183593 -0.024563
C -1.236551 0.691142 -0.038446
O -0.089353 -0.058626 -0.03654
C 1.151974 0.712699 -0.022936
C 2.314931 -0.264886 0.027188
C 3.664894 0.459102 0.071315
O -1.238535 1.920437 -0.045047
C -3.648209 0.424127 0.089397
H -1.755118 -1.96888 -1.03301
H -3.27226 -2.173749 -0.114187
H -1.701588 -2.068618 0.728511
H 1.13738 1.382084 0.850226
H 1.18089 1.346231 -0.922286
H 2.269084 -0.927934 -0.851915
H 2.203203 -0.909879 0.913928
H 3.815547 1.091152 -0.818492
H 4.495082 -0.261749 0.109724
H 3.746139 1.107967 0.958215
H -3.715752 1.512077 0.158616
H -4.577717 -0.151096 0.116226
