17

C -2.835314 -0.662765 -0.095489
C -1.617442 0.265016 -0.127333
C -0.302514 -0.484134 0.097036
C 0.918153 0.411241 0.110173
O 2.065276 -0.327478 -0.034699
C 3.292882 0.449342 0.017786
O 0.915471 1.629008 0.250066
H -2.775642 -1.437584 -0.877624
H -3.767188 -0.099495 -0.257998
H -1.716369 1.051234 0.636449
H -1.57224 0.793942 -1.093111
H 4.102019 -0.2761 -0.12389
H 3.387726 0.951122 0.991
H 3.302506 1.203733 -0.781066
H -2.924738 -1.179065 0.874661
H -0.151558 -1.27632 -0.65407
H -0.321028 -1.011698 1.068109
