15

C -1.701337 0.776297 0.14724
C -1.107051 -0.480892 0.005697
C 0.291373 -0.605629 -0.064705
C 1.077464 0.555819 -0.000821
C 0.479802 1.812618 0.142734
C -0.911256 1.928924 0.215691
C 0.916443 -1.961266 -0.326036
Cl 0.012273 -3.321125 0.470807
Cl 2.663427 -2.058455 0.143113
H -2.790474 0.850989 0.208981
H -1.733813 -1.373722 -0.036168
H 2.164512 0.476435 -0.05192
H 1.11148 2.703297 0.20044
H -1.377971 2.910374 0.33626
H 0.905128 -2.213664 -1.391313
