26

C -0.013243 1.619773 0.009513
C -0.037307 0.111176 0.002389
O 1.278864 2.099588 0.003056
O -0.983768 2.365851 0.019245
C -1.44141 -0.488016 0.013006
C -1.429302 -2.019551 0.004663
C -2.831233 -2.636521 0.015508
C -2.81911 -4.168034 0.006972
C -4.223246 -4.767248 0.017031
C -4.24729 -6.27584 0.00981
O -5.539393 -6.755673 0.016455
O -3.276755 -7.021902 -0.000142
H 0.536659 -0.224869 -0.878052
H 0.553677 -0.234106 0.86783
H 1.177738 3.086133 0.007809
H -1.985176 -0.120074 0.897627
H -2.002864 -0.110852 -0.856527
H -0.880013 -2.38062 -0.883011
H -0.862101 -2.39021 0.876984
H -3.380434 -2.275618 0.903298
H -3.398517 -2.265746 -0.856718
H -2.275089 -4.53593 -0.8775
H -2.257976 -4.545347 0.876647
H -4.797642 -4.431204 0.897195
H -4.813811 -4.421945 -0.848692
H -5.438257 -7.742216 0.011604
