26

C -4.843964 -0.801508 -0.01383
C -3.700489 0.217276 -0.011295
C -2.313555 -0.439812 0.004368
C -1.190752 0.583484 0.008701
O 0.081155 -0.140075 0.028235
C 1.200413 0.649663 0.039912
C 2.45231 -0.203311 0.086777
C 3.749422 0.587751 -0.088649
C 4.993183 -0.30411 -0.021329
O 1.167164 1.875324 0.02364
H -4.787912 -1.465432 -0.89176
H -5.82518 -0.30296 -0.036142
H -4.814821 -1.438854 0.88471
H -3.80168 0.880991 0.864947
H -3.787321 0.870226 -0.897124
H -2.200853 -1.096311 -0.874795
H -2.216619 -1.087542 0.891921
H -1.233171 1.241552 0.889667
H -1.214175 1.226053 -0.884255
H 2.358154 -0.994124 -0.676105
H 2.447646 -0.738311 1.053036
H 3.800926 1.371401 0.682851
H 3.719101 1.120047 -1.052545
H 5.912351 0.286587 -0.156701
H 4.979135 -1.079475 -0.805152
H 5.06953 -0.818528 0.950918
