10

C -1.489548 -0.764719 0.340382
C -0.733091 0.000592 -0.48061
C 0.733091 -0.000592 -0.48061
C 1.489548 0.764719 0.340382
Cl -1.483704 1.026834 -1.68202
Cl 1.483704 -1.026834 -1.68202
Cl 3.215545 0.773854 0.317444
Cl 0.765502 1.82492 1.504804
Cl -3.215545 -0.773854 0.317444
Cl -0.765502 -1.82492 1.504804
