17

C -0.010311 1.568249 0.009783
C -0.061394 0.059048 0.002094
O 1.290035 2.022782 0.001656
O -0.968756 2.328379 0.021319
C -1.48183 -0.50084 0.012525
C -1.492807 -2.027905 0.004985
C -2.883641 -2.616684 0.015661
O -2.842603 -3.9935 0.008977
O -3.935785 -1.992836 0.028172
H 0.505826 -0.286728 -0.878951
H 0.521814 -0.296167 0.868845
H 1.208816 3.011231 0.007103
H -2.022451 -0.128587 0.893937
H -2.039534 -0.119459 -0.854216
H -0.968018 -2.434933 -0.876234
H -0.951027 -2.442668 0.872268
H -3.794334 -4.272381 0.017077
