18

C -3.046875 1.233294 -0.151037
C -1.923443 0.237575 -0.129507
C -0.729537 0.419192 0.457083
C 0.39779 -0.574516 0.470385
C 1.671146 -0.069022 -0.235532
C 2.824517 -1.076077 -0.189083
H -3.323942 1.503619 -1.185207
H -2.780007 2.15794 0.382739
H -3.957126 0.819559 0.317404
H -2.112071 -0.717269 -0.63805
H -0.537165 1.374976 0.963659
H 0.066639 -1.517723 0.003998
H 0.65658 -0.822004 1.517379
H 1.989892 0.880491 0.227964
H 1.425395 0.172013 -1.283398
H 3.727305 -0.675062 -0.675636
H 2.558477 -2.01448 -0.702356
H 3.092425 -1.332507 0.849195
