28

C -0.824981 -0.02593 -3.735747
C 0.025499 -0.357748 -2.501138
C -0.668954 0.139132 -1.223921
N 0.017152 -0.296972 0.0
C -0.668954 0.139132 1.223921
C 0.025499 -0.357748 2.501138
C -0.824981 -0.02593 3.735747
C 1.448262 0.202591 -2.636966
C 1.448262 0.202591 2.636966
H -1.838124 -0.451736 -3.658734
H -0.363359 -0.420379 -4.654163
H -0.929446 1.064976 -3.860686
H 0.098753 -1.459582 -2.428029
H -1.734645 -0.181932 -1.239974
H -0.681714 1.242996 -1.224173
H 0.05335 -1.325015 0.0
H -1.734645 -0.181932 1.239974
H -0.681714 1.242996 1.224173
H 0.098753 -1.459582 2.428029
H -0.363359 -0.420379 4.654163
H -1.838124 -0.451736 3.658734
H -0.929446 1.064976 3.860686
H 1.951884 -0.205127 -3.527577
H 2.056099 -0.037024 -1.753147
H 1.425473 1.300758 -2.739633
H 2.056099 -0.037024 1.753147
H 1.951884 -0.205127 3.527577
H 1.425473 1.300758 2.739633
