35

C -6.546172 -0.730561 0.006734
C -5.302016 0.16337 -0.023242
C -3.983372 -0.619786 0.007324
C -2.734507 0.270342 -0.019961
C -1.415084 -0.511028 0.013359
C -0.168863 0.383041 -0.009415
C 1.152179 -0.395426 0.027397
C 2.390625 0.508785 0.006148
C 3.701766 -0.277616 0.043636
C 4.938885 0.595734 0.034288
O 6.071138 -0.17272 -0.06251
C 7.314218 0.580489 -0.062083
O 4.958825 1.818978 0.107181
H -6.569697 -1.413489 -0.858144
H -7.471899 -0.134714 -0.015626
H -6.572589 -1.351492 0.917089
H -5.329518 0.860643 0.832265
H -5.327196 0.797158 -0.926926
H -3.954777 -1.315671 -0.850524
H -3.95905 -1.257448 0.909446
H -2.765406 0.968793 0.835429
H -2.759433 0.904598 -0.924208
H -1.381494 -1.204947 -0.845729
H -1.390895 -1.149682 0.914562
H -0.20334 1.080686 0.846241
H -0.191995 1.017704 -0.913185
H 1.188383 -1.090424 -0.83091
H 1.17558 -1.03293 0.929631
H 2.363871 1.205606 0.858801
H 2.375305 1.143721 -0.894529
H 3.774574 -0.978723 -0.80485
H 3.75494 -0.915703 0.94307
H 7.343675 1.270018 -0.916995
H 8.1077 -0.170959 -0.143574
H 7.415637 1.153652 0.869813
