17

C -1.63677 -0.457995 -0.013057
C -0.931316 -1.663099 0.002654
C 0.462386 -1.631071 0.010158
C 1.114676 -0.387452 0.001456
N 0.432572 0.778268 -0.014891
C -0.920226 0.746868 -0.020366
C -1.624418 2.079794 -0.009022
C 2.620675 -0.298371 0.00408
H -2.72974 -0.448611 -0.019639
H -1.464003 -2.618208 0.005332
H 1.044247 -2.556705 0.018883
H -2.608992 2.027944 -0.497062
H -1.008823 2.83849 -0.511017
H -1.785367 2.422246 1.027545
H 3.053468 -0.802652 -0.875507
H 3.049037 -0.783228 0.896735
H 2.932594 0.753781 -0.006283
