18

C -0.802134 0.030363 0.0
C -0.12455 0.018748 -1.229336
C 1.278797 0.001028 -1.212796
C 1.974101 -0.007651 0.0
C 1.278797 0.001028 1.212796
C -0.12455 0.018748 1.229336
C -0.886913 -0.002759 2.532536
C -0.886913 -0.002759 -2.532536
H -1.897474 0.051889 0.0
H 1.831252 0.000914 -2.157527
H 3.067635 -0.011799 0.0
H 1.831252 0.000914 2.157527
H -1.868472 0.485466 2.435364
H -0.331211 0.503837 3.336082
H -1.069967 -1.038635 2.867056
H -0.331211 0.503837 -3.336082
H -1.868472 0.485466 -2.435364
H -1.069967 -1.038635 -2.867056
