14

C -2.264827 0.130005 -0.139114
N -1.747088 -1.112658 -0.065102
C -0.407043 -1.209823 0.017177
C 0.456466 -0.1009 0.030057
C -0.108895 1.181137 -0.049493
C -1.49395 1.298833 -0.134243
O 2.708792 0.726806 0.181252
C 1.930863 -0.222347 0.131345
O 2.362764 -1.526327 0.162763
H -3.356634 0.188232 -0.205348
H -0.001952 -2.223076 0.074783
H 0.548789 2.053092 -0.041474
H -1.975058 2.278085 -0.195436
H 3.347771 -1.46106 0.232832
