24

C -0.361432 -1.317104 0.047991
C 0.369164 -2.392815 0.578528
C 1.680265 -2.239387 1.037576
C 2.285226 -0.982907 0.966925
C 1.569726 0.096526 0.44017
C 0.252992 -0.041985 -0.027111
C -1.775057 -1.556575 -0.434443
H -0.106028 -3.377708 0.6268
H 2.220336 -3.095872 1.449827
H 3.309685 -0.838997 1.3209
H -2.062456 -2.606907 -0.285611
H -1.886767 -1.3343 -1.508365
H -2.510468 -0.933569 0.09955
C -1.179122 1.936036 0.613592
C -0.510766 1.170969 -0.549674
C 0.341439 2.119799 -1.408776
H 2.056647 1.073343 0.387859
H -0.418933 2.374155 1.279533
H -1.81127 1.273945 1.224262
H -1.809243 2.756631 0.234216
H -1.319586 0.798563 -1.197479
H -0.290337 2.912574 -1.839168
H 0.830814 1.584987 -2.23689
H 1.125171 2.6206 -0.820212
