17

C -0.77091 0.712171 -0.049256
C -0.347944 -0.633406 -0.049838
C 1.039071 -0.880268 -0.045794
C 1.968583 0.162036 -0.036907
C 1.523157 1.486282 -0.027043
C 0.148603 1.758779 -0.040651
O 2.446133 2.540376 -0.071678
C -1.27594 -1.770883 -0.058939
C -2.622373 -1.739217 -0.067359
H -1.83824 0.945396 -0.057608
H 1.392114 -1.91566 -0.051596
H 3.042382 -0.040685 -0.041895
H -0.185086 2.79932 -0.048665
H 2.668008 2.798454 0.84947
H -0.789074 -2.752903 -0.059181
H -3.204878 -2.662591 -0.073834
H -3.193607 -0.807202 -0.069225
