19

C -0.932009 0.127162 0.01408
C -0.25652 -1.112266 -0.020348
C 1.149912 -1.049291 -0.047191
C 1.849157 0.154647 -0.014825
C 1.128379 1.34981 0.023754
C -0.261333 1.350676 0.022944
N -2.404793 0.201259 0.035217
O -2.936672 1.202439 -0.485844
O -3.024115 -0.734822 0.583762
C -0.929851 -2.456226 -0.055155
H 1.709396 -1.986368 -0.094091
H 2.938576 0.183509 -0.025752
N 1.848489 2.634899 0.060436
O 1.168129 3.678032 0.136903
O 3.095996 2.593336 0.011041
H -0.818565 2.286093 0.032393
H -0.20255 -3.232771 -0.328882
H -1.760893 -2.483865 -0.773905
H -1.360732 -2.706251 0.925461
