18

C -1.70815 -0.728106 0.874042
C -0.812833 -0.243014 -0.004349
C -0.813793 1.219164 -0.397805
C 0.221116 -1.151672 -0.650422
H -1.736301 -1.789129 1.143521
H -2.448784 -0.084402 1.358441
H 0.551687 -0.713362 -1.606901
H -0.25537 -2.112821 -0.901526
C 1.4526 -1.433366 0.231351
H 2.152087 -2.113626 -0.280185
H 1.152923 -1.9035 1.179826
H 2.000433 -0.511873 0.478368
C 0.477028 1.988073 -0.067688
H -1.670183 1.719007 0.082372
H -0.9887 1.284298 -1.487848
H 1.354684 1.550366 -0.567236
H 0.672511 1.98916 1.015629
H 0.399047 3.034802 -0.399589
