13

C 0.0 -2.519879 -0.070556
C 0.0 -1.269222 0.411186
C 0.0 0.0 -0.414293
C 0.0 1.269222 0.411186
C 0.0 2.519879 -0.070556
H 0.0 -3.384724 0.597967
H 0.0 -2.730137 -1.145719
H 0.0 -1.131784 1.499203
H -0.87727 0.0 -1.084934
H 0.87727 0.0 -1.084934
H 0.0 1.131784 1.499203
H 0.0 3.384724 0.597967
H 0.0 2.730137 -1.145719
