21

C 0.10164 1.643015 -0.038982
C -0.024768 0.122755 -0.012762
C 1.557168 2.098637 0.009817
O -0.514192 2.151795 -1.268137
C 0.689484 -0.463161 1.214724
C 2.271815 1.515394 1.238334
C -1.576975 2.993641 -1.133523
C 2.154887 -0.013588 1.284554
O -2.166287 3.473244 -2.081654
H -0.443898 2.071533 0.821516
H -1.088419 -0.164555 -0.023302
H 0.424078 -0.279585 -0.936644
H 2.058467 1.762656 -0.913317
H 1.601059 3.199442 0.012701
H 0.165573 -0.142297 2.132862
H 0.622974 -1.562688 1.192157
H 3.329588 1.823891 1.234017
H 1.829833 1.943206 2.156425
H -1.837146 3.190788 -0.070174
H 2.629737 -0.406491 2.198391
H 2.709383 -0.446629 0.432999
