15

C -1.149077 -0.005472 0.0
C -0.475774 -1.240663 0.0
C 0.914844 -1.303476 0.0
C 1.655358 -0.111823 0.0
C 0.998128 1.131646 0.0
C -0.390332 1.180772 0.0
O -3.309866 1.05424 0.0
C -2.619064 0.032082 0.0
O 3.026086 -0.217599 0.0
H -1.059005 -2.166763 0.0
H 1.441114 -2.260454 0.0
H 1.585568 2.055622 0.0
H -0.917481 2.137935 0.0
H -3.104884 -0.975658 0.0
H 3.404385 0.68961 0.0
