36

C -4.978471 -1.551778 -0.095966
C -3.996411 -2.72841 0.188562
C -2.614982 -2.075282 0.417797
C -2.670941 -0.751668 -0.372382
C -4.110413 -0.272055 -0.095899
C -1.592871 0.280662 -0.022736
C -0.149773 -0.162501 -0.298781
C 0.8916 0.908273 0.05046
C 2.339163 0.476702 -0.215016
C 3.377297 1.548993 0.13723
C 4.826661 1.120861 -0.124822
H -5.785057 -1.494366 0.650077
H -5.467851 -1.688805 -1.072433
H -4.308584 -3.339421 1.048456
H -3.955552 -3.407918 -0.677007
H -1.783801 -2.729443 0.1161
H -2.47269 -1.844229 1.488466
H -2.589439 -0.99322 -1.449285
H -4.456485 0.481293 -0.82053
H -4.137373 0.206795 0.898479
H -1.693969 0.551663 1.044585
H -1.79205 1.209719 -0.586898
H -0.048255 -0.434922 -1.364716
H 0.072688 -1.081638 0.269946
H 0.784152 1.185591 1.114517
H 0.674574 1.828367 -0.521854
H 2.448722 0.199285 -1.278871
H 2.555765 -0.442904 0.35823
H 3.267327 1.827893 1.200794
H 3.161226 2.468498 -0.436679
C 5.854959 2.200685 0.2273
H 4.936933 0.842135 -1.187444
H 5.044583 0.203965 0.45066
H 5.687077 3.119418 -0.35841
H 6.882801 1.861921 0.024951
H 5.799439 2.475843 1.293118
