27

C -4.711734 0.381431 -0.024645
C -3.312484 1.004101 -0.062998
C -2.180375 -0.029226 -0.005955
C -0.7771 0.587767 -0.047497
C 0.355095 -0.445183 0.006839
C 1.75744 0.174912 -0.041392
C 2.888382 -0.860809 0.003999
C 4.279979 -0.231797 -0.043747
O 5.348618 -1.202421 -0.059061
H -4.868285 -0.304873 -0.872904
H -5.497894 1.151501 -0.07113
H -4.868123 -0.197589 0.90058
H -3.201102 1.710997 0.77802
H -3.205067 1.609191 -0.980489
H -2.293069 -0.738084 -0.846304
H -2.286863 -0.634443 0.912682
H -0.664807 1.295985 0.793301
H -0.67296 1.193529 -0.965812
H 0.241847 -1.155262 -0.831837
H 0.255137 -1.048402 0.927114
H 1.87176 0.88211 0.799731
H 1.85466 0.781154 -0.95981
H 2.792213 -1.566761 -0.838017
H 2.797343 -1.464069 0.926526
H 4.413268 0.474046 0.798279
H 4.407434 0.346736 -0.970985
H 5.276686 -1.714541 0.775512
