16

C -2.058441 0.368256 0.0
C -1.346055 -0.818742 0.0
C 0.062064 -0.82257 0.0
C 0.7961 0.403898 0.0
C 0.033199 1.6022 0.0
C -1.350731 1.586809 0.0
H -3.149856 0.356039 0.0
H -1.847541 -1.786235 0.0
N 0.719013 -2.108517 0.0
N 2.154336 0.468453 0.0
H 0.571619 2.554219 0.0
H -1.893451 2.535785 0.0
O 1.988931 -2.149357 0.0
O 0.019948 -3.146657 0.0
H 2.625859 1.368892 0.0
H 2.675007 -0.412474 0.0
