32

C -1.257052 0.0 1.286826
C -1.253878 -1.257301 0.396963
C 0.0 -1.282108 -0.507474
C 0.0 0.0 -1.372137
C 0.0 1.282108 -0.507474
C -1.253878 1.257301 0.396963
C 0.0 2.531088 -1.397798
C 0.0 -2.531088 -1.397798
C 1.253878 1.257301 0.396963
C 1.257052 0.0 1.286826
C 0.0 0.0 2.177684
C 1.253878 -1.257301 0.396963
H -2.160644 0.0 1.919711
H -1.278007 -2.165958 1.023882
H -2.162909 -1.282048 -0.229579
H -0.884459 0.0 -2.034277
H 0.884459 0.0 -2.034277
H -2.162909 1.282048 -0.229579
H -1.278007 2.165958 1.023882
H -0.88974 2.558104 -2.048018
H 0.88974 2.558104 -2.048018
H 0.0 3.452127 -0.792395
H -0.88974 -2.558104 -2.048018
H 0.0 -3.452127 -0.792395
H 0.88974 -2.558104 -2.048018
H 1.278007 2.165958 1.023882
H 2.162909 1.282048 -0.229579
H 2.160644 0.0 1.919711
H 0.0 0.885752 2.836136
H 0.0 -0.885752 2.836136
H 1.278007 -2.165958 1.023882
H 2.162909 -1.282048 -0.229579
