26

C -3.24937 -2.051199 0.171209
C -2.47069 -2.862733 1.004274
C -1.081636 -2.714776 1.02719
C -0.434083 -1.740623 0.238688
C -1.233242 -0.9427 -0.607564
C -2.620172 -1.097855 -0.640032
C 1.033586 -1.655757 0.2824
C 1.879627 -0.609559 0.095059
H -4.335907 -2.168257 0.143109
H -2.946675 -3.618989 1.634456
H -0.480375 -3.360891 1.673961
H -0.758043 -0.203162 -1.254523
H -3.215285 -0.473326 -1.311996
H 1.520467 -2.615644 0.491522
C 1.616826 0.826537 -0.086501
C 0.558772 1.500478 0.559212
C 0.372379 2.873275 0.387891
C 1.239687 3.611393 -0.428451
C 2.304868 2.96226 -1.063071
C 2.497353 1.590188 -0.88163
H 2.945232 -0.868211 0.081279
H -0.116387 0.939672 1.207713
H -0.451763 3.374489 0.902982
H 1.090884 4.68617 -0.560675
H 2.995107 3.52809 -1.694575
H 3.338838 1.09113 -1.371927
