21

C -2.285581 -0.464231 -0.16812
C -1.393648 -1.742322 -0.108974
C 0.033865 -1.246176 0.213646
C 0.059406 0.207067 -0.295666
C -1.335827 0.724749 0.104251
C 1.211339 1.06556 0.226889
C 2.564847 0.760618 -0.396009
O 3.62228 1.476196 0.136846
O 2.772072 -0.023446 -1.304569
H -3.112122 -0.495805 0.556881
H -2.74646 -0.364006 -1.162778
H -1.75 -2.468054 0.63711
H -1.40527 -2.260207 -1.080056
H 0.819295 -1.867424 -0.237946
H 0.199903 -1.24756 1.305881
H 0.129572 0.181776 -1.396088
H -1.62499 1.638238 -0.438437
H -1.336765 0.975314 1.179963
H 1.298682 0.963483 1.32483
H 1.00391 2.13626 0.044827
H 3.275494 2.049971 0.857521
