19

C -3.440218 -0.503246 -0.423597
C -2.066056 0.13242 -0.375491
C -1.212392 -0.243183 0.84198
C 0.098138 0.508812 0.903219
O 1.057226 -0.122726 0.17173
C 2.34574 0.575495 0.107196
O -1.657497 0.88303 -1.256347
O 0.266429 1.551423 1.523308
H -3.985027 -0.344631 0.521068
H -3.344256 -1.594738 -0.554461
H -4.013935 -0.089315 -1.261761
H -1.040963 -1.332066 0.812801
H -1.783622 -0.027161 1.757797
H 2.713182 0.718209 1.133195
C 3.286806 -0.264076 -0.733151
H 2.170783 1.568566 -0.329627
H 2.913079 -0.372433 -1.761594
H 3.419303 -1.26761 -0.302154
H 4.273281 0.22323 -0.774111
