18

C -2.586053 -0.925758 0.163456
C -1.461425 -0.006178 -0.28197
O -0.221041 -0.526342 0.21983
C 0.955781 0.144796 -0.288618
C 2.137302 -0.768293 0.020428
C 1.133901 1.542027 0.312903
H -2.438176 -1.943616 -0.226089
H -3.553843 -0.549007 -0.203439
H -2.632842 -0.980703 1.261194
H -1.636807 1.01854 0.094462
H -1.418041 0.053256 -1.387551
H 0.851137 0.238779 -1.388141
H 3.070701 -0.343383 -0.379687
H 1.985518 -1.762164 -0.424282
H 2.252766 -0.892099 1.108413
H 0.295647 2.209246 0.06444
H 2.05203 2.01044 -0.074728
H 1.213445 1.480461 1.409379
