39

C -4.730271 -0.078112 -0.034674
C -3.392959 0.672207 -0.036592
C -2.165932 -0.2483 -0.011728
C -0.828893 0.502732 -0.021996
C 0.398204 -0.41783 -0.003327
C 1.73515 0.333383 -0.01515
C 2.961486 -0.588023 0.006375
C 4.298635 0.163612 -0.003088
C 5.522529 -0.762179 0.020695
C 6.849401 -0.004539 0.011811
C -5.957863 0.841588 -0.066696
C -7.28962 0.084097 -0.069863
O 8.003951 -0.870263 -0.020025
H -4.784616 -0.725975 0.859027
H -4.766106 -0.761686 -0.90225
H -3.355791 1.352322 0.833489
H -3.341998 1.323285 -0.927973
H -2.205811 -0.93167 -0.879083
H -2.213769 -0.895851 0.882294
H -0.786849 1.183531 0.847311
H -0.78321 1.153015 -0.914139
H 0.356045 -1.098615 -0.872577
H 0.352915 -1.068014 0.88891
H 1.777018 1.016345 0.852444
H 1.781281 0.981108 -0.909069
H 2.921731 -1.269076 -0.862451
H 2.914796 -1.2372 0.899161
H 4.337198 0.847488 0.863694
H 4.346101 0.80918 -0.898239
H 5.501614 -1.443314 -0.846389
H 5.479976 -1.404277 0.920192
H 6.906426 0.682227 0.877979
H 6.930779 0.613637 -0.89461
H -5.902437 1.490552 -0.958421
H -5.924715 1.521947 0.802355
H -7.371439 -0.578646 -0.947205
H -8.147401 0.774287 -0.093654
H -7.394843 -0.545481 0.829134
H 7.969289 -1.417492 0.794328
