51

C -7.914572 -2.41446 0.191333
C -6.841387 -3.533315 0.3098
C -5.524351 -2.799617 0.619041
C -5.652008 -1.468969 -0.148501
C -7.126594 -1.079769 0.100608
C -4.641085 -0.377706 0.222727
C -3.184307 -0.73413 -0.100096
C -2.169049 0.373634 0.209127
C -0.731246 -0.044 -0.122088
C 0.342822 1.014429 0.159382
C 1.752401 0.51861 -0.184821
H -8.588949 -2.412727 1.060961
H -8.550422 -2.571603 -0.69301
H -7.095131 -4.290513 1.066929
H -6.74516 -4.068287 -0.649365
H -4.637127 -3.386285 0.337387
H -5.445555 -2.588496 1.700931
H -5.53367 -1.694922 -1.225565
H -7.516048 -0.404285 -0.676565
H -7.195899 -0.531059 1.055576
H -4.736765 -0.150464 1.300709
H -4.910061 0.554814 -0.30534
H -3.107313 -1.00098 -1.169827
H -2.898011 -1.643834 0.454865
H -2.2368 0.651908 1.276291
H -2.431937 1.284828 -0.357789
H -0.678585 -0.333721 -1.187307
H -0.486311 -0.960326 0.445215
H 0.304376 1.307992 1.22391
H 0.120301 1.931727 -0.41529
C 2.882315 1.516416 0.09446
H 1.780864 0.230256 -1.251291
H 1.949743 -0.412614 0.377163
H 2.86698 1.803077 1.161489
C 4.264915 0.958876 -0.265444
H 2.702268 2.449389 -0.46995
H 4.272115 0.67521 -1.333526
H 4.428752 0.017719 0.290544
C 5.434151 1.911519 0.008725
H 5.436626 2.193441 1.077169
C 6.796832 1.314969 -0.364185
H 5.280187 2.85306 -0.549125
H 6.78861 1.029625 -1.432001
H 6.944882 0.37145 0.192535
C 7.988163 2.243628 -0.101947
H 8.00196 2.527785 0.965034
C 9.334806 1.620526 -0.48363
H 7.845583 3.185416 -0.660878
H 9.363358 1.355835 -1.553431
H 9.523707 0.696773 0.088036
H 10.171628 2.309165 -0.288976
