26

O -4.288512 -0.114193 -0.398684
C -3.078765 0.666095 -0.410037
C -1.941234 -0.194724 0.119181
C -0.558271 0.432527 -0.156867
C 0.588793 -0.592119 -0.081202
C 1.971758 0.085802 0.02286
C 3.108635 -0.831791 -0.415969
O 4.390775 -0.230293 -0.210229
H -5.030896 0.510136 -0.544699
H -3.176806 1.567049 0.217948
H -2.832515 0.984524 -1.439539
H -2.005534 -1.182586 -0.368708
O -2.112074 -0.33978 1.548562
O -0.356759 1.550992 0.730716
H -0.534065 0.844129 -1.176044
H 0.531896 -1.205457 -0.999696
O 0.377106 -1.455871 1.072685
H 2.125594 0.364739 1.078168
O 2.075157 1.261033 -0.812152
H 2.965352 -1.101939 -1.480133
H 3.105382 -1.76188 0.173789
H 4.297595 0.681779 -0.56975
H -1.441286 -1.01271 1.809813
H -0.802799 1.266438 1.567702
H 1.077808 -2.14012 1.072817
H 1.543665 1.94822 -0.35053
