18

C 0.116234 0.652164 0.280816
C 0.090848 -0.88686 0.312782
C 1.552017 1.183791 0.377438
C -0.616824 1.247366 -0.928491
C -1.307661 -1.487877 0.422891
O 0.76899 -1.36768 -0.880019
H -0.421018 0.96574 1.19411
H 0.67876 -1.200801 1.196374
H 2.137527 0.901327 -0.509131
H 1.55941 2.281804 0.451966
H 2.069737 0.782943 1.262651
H -1.676071 0.953984 -0.956305
H -0.580127 2.346571 -0.895443
H -0.151697 0.923092 -1.870163
H -1.252292 -2.579869 0.558301
H -1.84837 -1.075669 1.288921
H -1.897672 -1.291466 -0.483215
H 0.778209 -2.348559 -0.823483
