12

N -3.686863 0.637284 -0.050601
C -2.653277 0.087451 -0.011725
C -1.392746 -0.642725 0.02952
C -0.154108 0.25805 0.035783
O 0.955023 -0.526393 -0.06079
C 2.215243 0.209035 -0.043582
O -0.15329 1.473431 0.12359
H -1.331152 -1.331961 -0.828705
H -1.36173 -1.279848 0.929707
H 2.255716 0.904539 -0.892103
H 2.993572 -0.556473 -0.127635
H 2.313613 0.767609 0.89654
