15

C 0.99582 -0.750609 0.042027
C 0.0 0.0 0.935021
C 2.226876 0.016232 -0.367054
O 0.760708 -1.898096 -0.335585
C -0.99582 0.750609 0.042027
C -2.226876 -0.016232 -0.367054
O -0.760708 1.898096 -0.335585
H -0.517915 -0.741916 1.557626
H 0.517915 0.741916 1.557626
H 2.828276 0.264516 0.522897
H 2.830743 -0.568907 -1.071218
H 1.932299 0.978933 -0.816203
H -2.828276 -0.264516 0.522897
H -2.830743 0.568907 -1.071218
H -1.932299 -0.978933 -0.816203
