17

N -0.885127 -0.002019 -0.165468
C -0.168662 -1.26045 -0.352233
C 1.204773 -1.177791 0.316515
O 1.945474 -0.0385 -0.152684
C 1.229861 1.178961 0.141165
C -0.137857 1.200089 -0.535826
O -2.798866 1.107477 0.537163
C -2.153318 0.070436 0.344505
H -0.763617 -2.079896 0.079251
H -0.039866 -1.460548 -1.431059
H 1.810726 -2.061663 0.072894
H 1.085576 -1.119847 1.416426
H 1.860203 2.000392 -0.225473
H 1.112616 1.28313 1.237134
H -0.011228 1.230495 -1.632303
H -0.732722 2.069798 -0.226776
H -2.557966 -0.940064 0.57677
