18

C -2.473443 0.610734 0.0
C -1.802822 -0.596444 0.0
C -0.382953 -0.637183 0.0
C 0.369027 0.592997 0.0
C -0.37297 1.811519 0.0
C -1.75469 1.829001 0.0
C 1.787607 0.528629 0.0
C 2.442805 -0.689107 0.0
C 1.707975 -1.899114 0.0
C 0.326846 -1.869245 0.0
Cl 0.478581 3.349364 0.0
H -3.565942 0.637557 0.0
H -2.356857 -1.539082 0.0
H -2.282793 2.784471 0.0
H 2.356639 1.459926 0.0
H 3.535526 -0.716869 0.0
H 2.234827 -2.857067 0.0
H -0.247362 -2.800087 0.0
