15

C -2.110774 0.008673 0.0
C -1.40769 -1.202376 0.0
C -0.012057 -1.201715 0.0
C 0.684894 0.015682 0.0
C -0.014906 1.227224 0.0
C -1.413638 1.22032 0.0
C 2.188577 -0.012389 0.0
H -3.20381 0.006062 0.0
H -1.948594 -2.152142 0.0
H 0.539163 -2.144825 0.0
H 0.531604 2.171688 0.0
H -1.958035 2.168098 0.0
F 2.689246 -0.672658 -1.102727
F 2.689246 -0.672658 1.102727
F 2.746772 1.241015 0.0
