14

C -1.114346 0.002231 -1.249439
C 0.386308 0.166792 -1.24694
C 1.05622 -0.409639 0.0
C 0.386308 0.166792 1.24694
C -1.114346 0.002231 1.249439
O -1.76588 -0.066422 0.0
O -1.808385 -0.059856 2.242886
O -1.808385 -0.059856 -2.242886
H 0.757169 -0.279962 -2.179129
H 0.584235 1.251455 -1.318687
H 2.13123 -0.177087 0.0
H 0.968468 -1.508175 0.0
H 0.584235 1.251455 1.318687
H 0.757169 -0.279962 2.179129
