15

O 0.423168 1.642876 0.0
C 0.094969 0.22094 0.0
H -0.430008 2.12856 0.0
C 1.446527 -0.494266 0.0
C -0.707239 -0.120892 -1.26386
C -0.707239 -0.120892 1.26386
H 1.308615 -1.585898 0.0
H 2.028818 -0.21747 0.890785
H 2.028818 -0.21747 -0.890785
H -0.944173 -1.195521 -1.308789
H -0.137308 0.147481 -2.165135
H -1.661734 0.430295 -1.285068
H -0.137308 0.147481 2.165135
H -0.944173 -1.195521 1.308789
H -1.661734 0.430295 1.285068
