20

C -2.392878 -0.212709 0.09933
C -1.01058 0.425229 0.308353
C 0.10807 -0.570023 -0.05612
C 1.532833 -0.125611 0.301679
C 2.58458 -1.207182 0.028244
C -0.904331 1.74757 -0.466709
H -2.556954 -0.463128 -0.962446
H -3.200905 0.469583 0.407597
H -2.499879 -1.142989 0.679742
H -0.907554 0.657078 1.384618
H 0.055489 -0.790408 -1.138588
H -0.09732 -1.527922 0.454344
H 1.566335 0.155749 1.369081
H 1.796336 0.78465 -0.261195
H 3.596743 -0.86394 0.293834
H 2.598606 -1.492588 -1.03642
H 2.379557 -2.120681 0.610533
H -1.715849 2.437028 -0.184882
H -0.979657 1.574421 -1.553725
H 0.047356 2.265873 -0.277269
