20

N 0.0 0.0 -1.297813
C -0.720364 1.185219 -0.780093
C -0.666248 1.216463 0.780093
N 0.0 0.0 1.297813
C -0.720364 -1.185219 0.780093
C -0.666248 -1.216463 -0.780093
C 1.386612 0.031244 -0.780093
C 1.386612 -0.031244 0.780093
H -0.257405 2.082068 -1.221258
H -1.756795 1.137044 -1.149711
H -1.674422 1.263954 1.221258
H -0.106311 2.089951 1.149711
H -1.756795 -1.137044 1.149711
H -0.257405 -2.082068 1.221258
H -1.674422 -1.263954 -1.221258
H -0.106311 -2.089951 -1.149711
H 1.863106 0.952907 -1.149711
H 1.931827 -0.818115 -1.221258
H 1.931827 0.818115 1.221258
H 1.863106 -0.952907 1.149711
