24

C -2.467255 0.454328 -0.600435
C -1.586652 0.26894 0.400513
C -0.49049 -0.776603 0.314349
C 0.884839 -0.357443 -0.301129
C 1.82695 -1.572402 -0.182652
C -1.694146 1.055708 1.684785
C 0.72128 0.004958 -1.787802
C 1.509066 0.834928 0.446951
H -3.261516 1.203758 -0.534049
H -2.429253 -0.13961 -1.51752
H -0.860144 -1.629048 -0.278828
H -0.29684 -1.170229 1.327353
H 2.830354 -1.332666 -0.568759
H 1.445581 -2.431958 -0.756605
H 1.940201 -1.892092 0.865758
H -2.518936 1.781514 1.650172
H -0.765324 1.601348 1.915539
H -1.87299 0.378131 2.537561
H 0.275347 -0.827613 -2.355554
H 1.699295 0.230678 -2.241933
H 0.076289 0.885899 -1.921871
H 2.490444 1.087772 0.015211
H 1.664248 0.60755 1.513842
H 0.879653 1.734152 0.375102
