23

C 0.020294 1.585886 0.010051
C -0.028578 0.077572 0.001808
O 1.319806 2.044998 0.00448
O -0.938826 2.34632 0.019864
C -1.444156 -0.494371 0.011773
C -1.46617 -2.026008 0.003396
C -2.886255 -2.599001 0.014742
C -2.911878 -4.125894 0.008139
C -4.303627 -4.710178 0.01873
O -4.269223 -6.087883 0.013705
O -5.355429 -4.084369 0.029852
H 0.539469 -0.26751 -0.87899
H 0.555616 -0.277955 0.867756
H 1.23423 3.033032 0.009923
H -1.981045 -0.116219 0.896038
H -1.998051 -0.106388 -0.85761
H -0.924629 -2.398439 -0.884791
H -0.906743 -2.407967 0.876336
H -3.431034 -2.231884 0.898777
H -3.448783 -2.223445 -0.854523
H -2.387548 -4.535228 -0.872316
H -2.370888 -4.541958 0.875324
H -5.222553 -6.361112 0.021533
