36

C -2.785631 -3.805055 0.05844
C -2.185555 -5.085795 0.04913
C -0.808184 -5.198057 0.022736
C 0.023943 -4.04518 0.005513
C -0.58117 -2.738067 0.014539
C -2.00207 -2.663971 0.04204
C 0.255255 -1.567806 -0.004833
C 1.631216 -1.740381 -0.028077
C 2.226455 -3.025961 -0.036515
C 1.440584 -4.15872 -0.021864
H -3.875222 -3.71557 0.081108
H -2.811233 -5.982409 0.06373
H -0.333846 -6.183821 0.016288
H -2.488008 -1.687125 0.048834
C -0.380973 -0.191003 -0.00413
H 2.28605 -0.866873 -0.041487
H 3.316448 -3.110432 -0.057821
H 1.892322 -5.154705 -0.028739
H -1.060961 -0.1168 0.863903
C 0.561173 1.01783 0.011214
C -0.19728 2.351463 -0.005888
C 0.715725 3.583807 0.005318
C -0.046136 4.914614 -0.030716
C 0.866772 6.145031 -0.025352
H -1.041786 -0.108969 -0.886761
H 1.237202 0.977083 -0.859819
H 1.2077 0.977845 0.90448
H -0.878503 2.394757 0.862745
H -0.847704 2.389163 -0.898041
H 1.404638 3.536357 -0.857349
H 1.358722 3.555904 0.903332
H -0.732364 4.962615 0.832908
H -0.690577 4.939628 -0.926787
H 0.284043 7.079141 -0.038878
H 1.531473 6.155424 -0.904539
H 1.507483 6.166039 0.871339
