17

C -2.560545 -0.066236 0.0
C -1.927076 -1.31638 0.0
C -0.537382 -1.414609 0.0
C 0.278277 -0.257342 0.0
C -0.366706 0.99829 0.0
C -1.76245 1.082365 0.0
N 1.656145 -0.411402 0.0
C 2.665386 0.629545 0.0
H -3.650317 0.008428 0.0
H -2.523387 -2.233156 0.0
H -0.06178 -2.400628 0.0
H 0.216133 1.920712 0.0
H -2.227986 2.071845 0.0
H 1.993816 -1.371212 0.0
H 3.307728 0.571606 -0.895609
H 3.307728 0.571606 0.895609
H 2.192417 1.61657 0.0
