16

C -3.310475 -0.311478 -0.068764
C -1.914424 0.309068 -0.067498
S -0.888092 -0.528326 1.230262
S 0.888092 0.528326 1.230262
C 1.914424 -0.309068 -0.067498
C 3.310475 0.311478 -0.068764
H -3.275428 -1.386903 -0.301361
H -3.936917 0.177259 -0.831572
H -3.805626 -0.188403 0.906278
H -1.94793 1.380566 0.172664
H -1.419526 0.178992 -1.040009
H 1.419526 -0.178992 -1.040009
H 1.94793 -1.380566 0.172664
H 3.275428 1.386903 -0.301361
H 3.936917 -0.177259 -0.831572
H 3.805626 0.188403 0.906278
