27

C -4.082984 -0.356272 -0.524464
C -2.972275 0.220003 -1.01778
C -1.637003 -0.491086 -0.996689
C -0.578697 0.160382 -0.084061
C 0.737604 -0.626145 -0.034596
C 1.8075 0.021179 0.854076
C 3.119804 -0.771146 0.919638
C 4.187786 -0.112342 1.799376
C -3.001581 1.599404 -1.627546
H -5.051643 0.153196 -0.537617
H -4.063065 -1.35975 -0.088147
H -1.23408 -0.531848 -2.026187
H -1.789049 -1.536259 -0.681621
H -0.992641 0.252658 0.934662
H -0.371077 1.188425 -0.425446
H 1.134083 -0.738722 -1.059617
H 0.536427 -1.651088 0.324779
H 1.406519 0.144446 1.87615
H 2.017325 1.042423 0.48843
H 3.515932 -0.902752 -0.102396
H 2.911359 -1.788032 1.295374
H 4.453487 0.890071 1.425542
H 5.111286 -0.711293 1.829775
H 3.834276 0.006339 2.836638
H -4.018219 2.017051 -1.63943
H -2.625351 1.58015 -2.665577
H -2.355724 2.301009 -1.073268
