11

C 0.216874 -0.062034 -1.308253
C -0.552239 0.207846 0.0
C 0.216874 -0.062034 1.308253
F 1.320952 0.737053 -1.389823
F -0.59669 0.237097 -2.364858
F 0.609051 -1.356704 -1.432719
F -1.698033 -0.585259 0.0
H -0.850102 1.266588 0.0
F -0.59669 0.237097 2.364858
F 1.320952 0.737053 1.389823
F 0.609051 -1.356704 1.432719
