11

C 0.23341 0.150915 -1.276152
C -0.536394 -0.156982 0.0
C 0.23341 0.150915 1.276152
Cl -1.017714 -1.937553 0.0
H 0.478636 1.225904 -1.305921
H -0.358018 -0.093928 -2.169153
H 1.174069 -0.418278 -1.315014
H -1.502083 0.365308 0.0
H -0.358018 -0.093928 2.169153
H 0.478636 1.225904 1.305921
H 1.174069 -0.418278 1.315014
