13

S -0.197919 1.649917 0.015506
O -0.097584 0.017538 0.098361
O 1.376104 2.086723 -0.098965
O -0.884757 1.899931 -1.246784
O -0.623671 2.197356 1.298673
C 0.415799 -0.50098 1.366118
C 2.008639 1.774752 -1.380228
H 1.426345 -0.116851 1.557302
H -0.261493 -0.230031 2.184791
H 0.441681 -1.587915 1.229384
H 1.986437 0.692844 -1.565963
H 1.506143 2.316809 -2.1901
H 3.042276 2.120908 -1.269095
