23

O -3.605824 -0.833186 0.438345
C -2.31172 -0.238535 0.666879
C -1.211355 -0.90459 -0.165006
N 0.089859 -0.243667 0.00226
C 1.211847 -1.155451 -0.275738
C 2.574926 -0.614047 0.152796
C 0.573706 2.232861 0.132204
C 0.177917 1.036232 -0.737305
H -3.544555 -1.769692 0.726056
H -2.039269 -0.268183 1.736386
H -2.428839 0.817686 0.387151
H -1.540725 -0.945557 -1.22589
H -1.108885 -1.94953 0.171491
H 1.250451 -1.43346 -1.354481
H 1.016115 -2.086964 0.277704
H 2.883291 0.259102 -0.441378
H 3.344217 -1.388934 0.012824
H 2.566209 -0.323027 1.213984
H 0.586953 3.157346 -0.467986
H 1.570951 2.101555 0.576145
H -0.141274 2.369764 0.957307
H 0.885591 0.935855 -1.58238
H -0.799585 1.244422 -1.201369
