17

N 0.0 -4.664031 -0.722921
C 0.0 -3.654833 -0.126067
C 0.0 -2.379835 0.586871
C 0.0 -1.186578 -0.377035
O 0.0 0.0 0.425295
C 0.0 1.186578 -0.377035
C 0.0 2.379835 0.586871
C 0.0 3.654833 -0.126067
N 0.0 4.664031 -0.722921
H 0.886573 -2.329508 1.239113
H -0.886573 -2.329508 1.239113
H -0.893783 -1.217668 -1.025861
H 0.893783 -1.217668 -1.025861
H -0.893783 1.217668 -1.025861
H 0.893783 1.217668 -1.025861
H 0.886573 2.329508 1.239113
H -0.886573 2.329508 1.239113
