27

C -0.956327 0.437676 -1.415603
C -1.176988 -1.093658 -1.235538
C -0.094566 -1.473257 -0.199675
C 1.261994 -1.353509 -0.920498
C 1.4263 0.167206 -1.04864
C 0.183992 0.795019 -0.401585
C 0.319433 2.272139 -0.081953
O 2.361193 0.75904 -1.579533
C -0.084308 -0.234114 0.759346
H -1.856773 1.017516 -1.164215
H -0.679044 0.715593 -2.442835
H -1.05204 -1.651388 -2.175091
H -2.188604 -1.315302 -0.867504
H -0.258373 -2.43929 0.298635
H 1.28715 -1.826034 -1.913867
H 2.106685 -1.769086 -0.351242
H -0.609408 2.676738 0.350085
H 0.549766 2.843489 -0.993395
H 1.140388 2.457966 0.626624
C 1.035247 -0.269004 1.814275
C -1.412658 -0.014485 1.498697
H 2.044076 -0.361043 1.388107
H 0.887904 -1.11282 2.506774
H 1.025293 0.650649 2.418853
H -1.607714 -0.853647 2.185516
H -2.28154 0.074154 0.833602
H -1.37108 0.899451 2.110659
