20

C -1.279902 -0.692005 0.161425
C -0.60014 -2.035835 0.200539
C 0.721473 -2.202629 0.025531
C 1.673566 -1.057277 -0.198194
C 1.040426 0.304179 0.127062
C -0.379713 0.410781 -0.446755
C -1.033134 1.760689 -0.303124
C -0.529026 2.853681 0.289032
H -1.585775 -0.397724 1.183867
H -2.219831 -0.764245 -0.41337
H -1.233935 -2.910242 0.384919
H 1.144233 -3.213147 0.043088
H 2.026208 -1.072558 -1.247701
H 2.582253 -1.205067 0.411415
H 1.674091 1.116126 -0.262906
H 0.995089 0.43345 1.22208
H -0.315773 0.195255 -1.53164
H -2.042334 1.825452 -0.730422
H -1.102856 3.782166 0.341668
H 0.465078 2.868951 0.743486
