24

C -2.489027 -0.617769 0.0
C -1.743882 -1.832445 0.0
C -0.363792 -1.831215 0.0
C 0.36885 -0.611641 0.0
C -0.36882 0.620308 0.0
C -1.790188 0.577862 0.0
C 0.361135 1.837512 0.0
C 1.744052 1.838205 0.0
C 2.488142 0.627464 0.0
C 1.787013 -0.570623 0.0
C -3.997097 -0.65702 0.0
H -2.282299 -2.785506 0.0
H 0.186282 -2.777093 0.0
H -2.337662 1.526333 0.0
H -0.187808 2.783946 0.0
H 2.282948 2.790639 0.0
C 3.999158 0.65204 0.0
H 2.332822 -1.520458 0.0
H -4.384391 -1.18731 0.885828
H -4.384391 -1.18731 -0.885828
H -4.426707 0.355081 0.0
H 4.411246 0.143174 -0.886516
H 4.411246 0.143174 0.886516
H 4.38317 1.682651 0.0
