29

C -4.275393 0.388962 -0.413324
C -2.884939 0.854123 0.034626
C -1.748275 -0.172845 -0.155822
C -0.387915 0.490344 0.143233
C 0.854912 -0.341131 -0.201754
C 2.169892 0.406658 0.056429
C 3.425257 -0.409425 -0.277916
C 4.731557 0.345288 -0.008477
C -1.970993 -1.439434 0.684368
H -4.272951 0.080587 -1.471773
H -5.013684 1.198899 -0.306832
H -4.641126 -0.4626 0.180116
H -2.921594 1.151755 1.098211
H -2.620471 1.768529 -0.523683
H -1.747227 -0.470369 -1.221944
H -0.35464 0.767699 1.213169
H -0.335937 1.443039 -0.413179
H 0.810073 -0.643909 -1.263503
H 0.859055 -1.277093 0.381353
H 2.20938 0.714904 1.11689
H 2.17893 1.343899 -0.528603
H 3.389807 -0.715237 -1.338271
H 3.415318 -1.34591 0.306628
H 4.792612 1.267464 -0.609092
H 5.612222 -0.269167 -0.253331
H 4.813876 0.636623 1.051561
H -1.180681 -2.185277 0.515795
H -2.927452 -1.925946 0.443511
H -1.979614 -1.200427 1.761612
