17

C -0.889618 -0.889618 -0.889618
C 0.0 0.0 0.0
C -0.889618 0.889618 0.889618
C 0.889618 -0.889618 0.889618
C 0.889618 0.889618 -0.889618
H -0.280904 -1.5393 -1.5393
H -1.5393 -0.280904 -1.5393
H -1.5393 -1.5393 -0.280904
H -1.5393 1.5393 0.280904
H -0.280904 1.5393 1.5393
H 1.5393 -1.5393 0.280904
H 0.280904 -1.5393 1.5393
H 1.5393 -0.280904 1.5393
H 0.280904 1.5393 -1.5393
H 1.5393 0.280904 -1.5393
H 1.5393 1.5393 -0.280904
H -1.5393 0.280904 1.5393
