21

C -1.1663 -1.097916 -0.971447
C -0.105574 -1.037379 0.135673
S -0.177802 0.599172 1.039719
C 0.1905 1.853247 -0.253959
C 0.15962 3.243537 0.382457
C -0.423272 -2.067273 1.231705
C 1.298767 -1.28598 -0.433638
H -2.172748 -0.92266 -0.565319
H -1.155516 -2.090745 -1.451926
H -0.978974 -0.353415 -1.758957
H -0.562891 1.782113 -1.051699
H 1.180981 1.651998 -0.686986
H -0.826817 3.459676 0.81966
H 0.371653 4.012473 -0.377026
H 0.913016 3.33495 1.179216
H -0.422484 -3.081804 0.800698
H -1.413934 -1.887112 1.675212
H 0.325512 -2.039086 2.037457
H 1.350894 -2.292366 -0.88237
H 2.062515 -1.218438 0.354287
H 1.552855 -0.562992 -1.222756
