51

C -0.011209 1.536738 -0.050949
C -0.051983 0.005902 -0.100258
C 1.40549 2.118268 -0.068334
C -1.466467 -0.577695 -0.024344
C 1.444681 3.649629 -0.048335
C -1.505958 -2.10784 -0.094408
C 2.861011 4.231947 -0.011295
C -2.913996 -2.699423 0.030336
C 2.896914 5.763331 -0.031399
C -2.946801 -4.229043 -0.05375
C 4.310141 6.349872 0.041569
C -4.346501 -4.832315 0.10201
C 4.332171 7.887721 -0.029539
C -4.370896 -6.361792 0.009839
C 5.706901 8.470244 0.114667
C -5.766563 -6.965298 0.179425
C 6.351606 9.174745 -0.823193
H -0.584118 1.942444 -0.904339
H -0.537049 1.888811 0.854753
H 0.437222 -0.340691 -1.028301
H 0.554309 -0.40341 0.727996
H 1.970539 1.724874 0.795831
H 1.940098 1.753622 -0.963867
H -1.947906 -0.241131 0.911461
H -2.079594 -0.159623 -0.843108
H 0.914573 4.037247 -0.936934
H 0.875111 4.02088 0.82257
H -1.053818 -2.440106 -1.046167
H -0.864681 -2.526402 0.702304
H 3.384607 3.861481 0.88828
H 3.43738 3.845393 -0.871044
H -3.361198 -2.375753 0.987372
H -3.560716 -2.275496 -0.759059
H 2.402201 6.123654 -0.951366
H 2.293659 6.157579 0.806252
H -2.51787 -4.550325 -1.020028
H -2.281232 -4.650289 0.72135
H 4.801472 6.016911 0.972896
H 4.922883 5.947522 -0.783596
H -4.77362 -4.518609 1.071765
H -5.016402 -4.408992 -0.66832
H 3.888692 8.218227 -0.983715
H 3.680138 8.285365 0.771121
H -3.951165 -6.674146 -0.962562
H -3.693735 -6.780668 0.775025
H 6.216145 8.270711 1.066821
H -6.200125 -6.707006 1.159008
H -6.46119 -6.596327 -0.592388
H -5.743767 -8.063745 0.106531
H 5.887821 9.396125 -1.790298
H 7.360796 9.56288 -0.660287
