10

Cl -2.479918 -0.056884 -0.020759
C -0.890255 0.822958 -0.170443
C 0.200827 0.05453 0.522235
O 1.5509 0.36422 0.062589
C 0.99424 -0.960524 -0.188476
H -1.047151 1.808625 0.285166
H -0.677708 0.938424 -1.239703
H 0.107938 -0.02631 1.610781
H 1.467062 -1.769362 0.378762
H 0.774065 -1.175676 -1.240154
