36

C 0.392523 1.877486 0.0
C 0.53666 0.403784 0.0
O 1.627716 2.468189 0.0
O -0.668669 2.497163 0.0
C -0.53666 -0.403784 0.0
C 1.606982 3.931079 0.0
C -0.392523 -1.877486 0.0
C 3.04122 4.425581 0.0
O -1.627716 -2.468189 0.0
O 0.668669 -2.497163 0.0
C 3.120896 5.957633 0.0
C -1.606982 -3.931079 0.0
C 4.558386 6.481599 0.0
C -3.04122 -4.425581 0.0
C -3.120896 -5.957633 0.0
C -4.558386 -6.481599 0.0
H 1.543937 -0.017837 0.0
H -1.543937 0.017837 0.0
H 1.049402 4.269734 -0.8857
H 1.049402 4.269734 0.8857
H 3.562945 4.022691 0.883716
H 3.562945 4.022691 -0.883716
H 2.586475 6.352198 -0.881137
H 2.586475 6.352198 0.881137
H -1.049402 -4.269734 -0.8857
H -1.049402 -4.269734 0.8857
H 5.111536 6.1363 0.887505
H 5.111536 6.1363 -0.887505
H 4.58399 7.581674 0.0
H -3.562945 -4.022691 0.883716
H -3.562945 -4.022691 -0.883716
H -2.586475 -6.352198 -0.881137
H -2.586475 -6.352198 0.881137
H -5.111536 -6.1363 0.887505
H -5.111536 -6.1363 -0.887505
H -4.58399 -7.581674 0.0
