22

C -3.533002 0.693085 -0.040523
C -2.09488 1.169756 0.060475
C -1.020955 0.133343 -0.242347
C 0.401428 0.556838 0.125329
C 1.502355 -0.421059 -0.327371
C 2.890769 0.202221 -0.117456
O -1.824394 2.329895 0.374377
C 1.409299 -1.782662 0.378758
H -3.77205 0.077076 0.843753
H -3.69156 0.054392 -0.924194
H -4.215574 1.551873 -0.063939
H -1.091062 -0.080177 -1.326853
H -1.31366 -0.813461 0.243184
H 0.465274 0.699213 1.217901
H 0.58789 1.55018 -0.311058
H 1.373702 -0.595073 -1.412053
H 3.68908 -0.469989 -0.469327
H 3.075279 0.405383 0.950792
H 2.990367 1.156152 -0.658827
H 2.210597 -2.459212 0.043384
H 0.452298 -2.29068 0.184531
H 1.5088 -1.667091 1.471462
