24

C 0.0 0.0 -4.855356
C 0.0 1.210596 -4.151302
C 0.0 1.215575 -2.756438
C 0.0 0.0 -2.03341
C 0.0 -1.215575 -2.756438
C 0.0 -1.210596 -4.151302
C 0.0 0.0 -0.613332
C 0.0 0.0 0.613332
C 0.0 0.0 2.03341
C 0.0 1.215575 2.756438
C 0.0 1.210596 4.151302
C 0.0 0.0 4.855356
C 0.0 -1.210596 4.151302
C 0.0 -1.215575 2.756438
H 0.0 0.0 -5.948325
H 0.0 2.159788 -4.694027
H 0.0 2.159903 -2.207097
H 0.0 -2.159903 -2.207097
H 0.0 -2.159788 -4.694027
H 0.0 2.159903 2.207097
H 0.0 2.159788 4.694027
H 0.0 0.0 5.948325
H 0.0 -2.159788 4.694027
H 0.0 -2.159903 2.207097
