26

C -3.150968 0.924698 0.210691
C -2.414082 -0.267101 0.272515
C -1.034255 -0.222338 0.035452
C -0.402284 1.005512 -0.262001
C -1.136937 2.18546 -0.322946
C -2.521311 2.140871 -0.083332
C 1.076308 0.757613 -0.466992
C 1.196401 -0.746794 -0.259139
C -0.022313 -1.290368 0.030044
C 1.977309 1.60061 0.456474
H -4.228751 0.905072 0.395517
H -2.915687 -1.211978 0.499952
H -0.653051 3.139984 -0.551323
H -3.110686 3.060345 -0.130759
H 1.347001 0.996676 -1.514332
C 2.506219 -1.453147 -0.411612
C -0.357453 -2.7259 0.298351
H 3.041538 1.368969 0.297006
H 1.736711 1.410664 1.513402
H 1.83916 2.674856 0.263483
H 2.818754 -1.496332 -1.47096
H 2.469683 -2.487046 -0.040766
H 3.315018 -0.934812 0.129852
H 0.540103 -3.349564 0.410595
H -0.961702 -3.156847 -0.51894
H -0.954726 -2.829102 1.219769
