27

C -4.749413 1.877319 0.011134
C -3.261762 2.182351 -0.006798
O -2.533192 0.947026 0.023609
C -1.11491 1.154398 -0.013887
C -0.409528 -0.193972 0.029786
C 1.118392 -0.068062 -0.020874
C 1.842853 -1.419099 0.021005
C 3.371712 -1.302 -0.028391
C 4.088555 -2.655168 0.012642
H -5.023321 1.320399 0.91949
H -5.034297 1.271988 -0.862352
H -5.330689 2.812225 -0.010702
H -2.977753 2.804865 0.865367
H -2.990866 2.754157 -0.916916
H -0.803476 1.783388 0.844698
H -0.841343 1.706746 -0.935798
H -0.765443 -0.806077 -0.815417
H -0.715219 -0.722902 0.947637
H 1.46539 0.55631 0.8216
H 1.412224 0.472859 -0.937985
H 1.499414 -2.043485 -0.823025
H 1.548296 -1.963931 0.935654
H 3.71565 -0.677449 0.814452
H 3.66425 -0.758649 -0.943771
H 5.181706 -2.535009 -0.044672
H 3.780474 -3.296455 -0.829226
H 3.862298 -3.20177 0.942738
