36

N -7.372834 -0.113102 -0.075032
C -6.135833 0.694042 0.010344
C -4.90784 -0.216809 -0.008566
N -3.663733 0.563598 0.049034
C -2.463839 -0.284997 0.022234
C -1.189775 0.560217 0.036844
N 0.005329 -0.295346 0.021932
C 1.258626 0.471842 0.012063
C 2.469145 -0.46184 0.035174
N 3.726973 0.296575 -0.008307
C 4.91602 -0.565043 0.01956
C 6.208936 0.251823 -0.102445
N 7.462661 -0.524177 -0.059956
H -8.178809 0.524435 -0.105754
H -7.485395 -0.632645 0.806537
H -6.081037 1.349535 0.900004
H -6.10945 1.352092 -0.873905
H -4.968205 -0.882956 -0.894208
H -4.930678 -0.874278 0.877783
H -3.636253 1.181417 -0.773064
H -2.431545 -0.970819 -0.849421
H -2.488401 -0.923578 0.922194
H -1.222039 1.255162 0.901112
H -1.159132 1.188068 -0.870321
H -0.008151 -0.879387 0.868476
H 1.340881 1.192947 0.851659
H 1.275732 1.067897 -0.916623
H 2.373889 -1.198046 -0.790058
H 2.463351 -1.04182 0.974124
H 3.744233 0.843007 -0.879575
H 4.902658 -1.34599 -0.77523
H 4.919265 -1.103773 0.982873
H 6.238645 1.002276 0.701725
H 6.199081 0.815756 -1.05039
H 7.428374 -1.25116 -0.787926
H 7.499151 -1.044924 0.827111
