36

C -7.104709 0.305456 -0.651694
C -6.128231 0.470788 0.25206
C -4.882455 -0.361389 0.358767
H -7.982548 0.957728 -0.674933
H -7.065536 -0.492739 -1.401217
H -6.218978 1.289297 0.978005
H -4.910756 -1.171254 -0.389649
H -4.860997 -0.85358 1.349135
C -3.587543 0.45626 0.191993
C -2.315263 -0.392811 0.306844
H -3.5645 1.259983 0.949476
H -3.607764 0.963145 -0.787894
H -2.346328 -1.198483 -0.448787
H -2.302866 -0.901172 1.28774
C -1.019897 0.409678 0.135127
H -0.972855 1.197823 0.908271
H -1.045507 0.939786 -0.833892
C 0.249277 -0.449843 0.206096
H 0.197225 -1.238459 -0.566354
H 0.276494 -0.980118 1.175078
C 1.548097 0.345938 0.029516
H 1.621948 1.105693 0.828469
H 1.504153 0.911199 -0.918783
C 2.810586 -0.525955 0.040509
H 2.730574 -1.291048 -0.752816
H 2.859284 -1.08512 0.992293
C 4.110872 0.264532 -0.147054
H 4.204716 1.010719 0.662792
H 4.053612 0.846225 -1.084807
C 5.370096 -0.611968 -0.173096
H 5.274891 -1.358951 -0.980791
H 5.430246 -1.190298 0.765506
C 6.664682 0.184386 -0.364048
H 6.653757 0.746711 -1.312147
H 7.546221 -0.475674 -0.379645
H 6.810001 0.913515 0.449928
