17

C -2.676221 0.750297 -0.004488
C -1.496196 -0.225583 -0.048142
C -0.134615 0.47909 0.027987
C 1.022309 -0.503605 -0.012827
O 2.273802 0.263905 0.062913
C 3.40756 -0.479973 0.039623
O 3.480661 -1.696882 -0.029826
H -3.637996 0.217467 -0.059141
H -2.64107 1.460985 -0.845819
H -2.674626 1.339348 0.926695
H -1.548711 -0.825971 -0.972527
H -1.584479 -0.944708 0.784659
H -0.071085 1.073427 0.954471
H -0.033485 1.191638 -0.80762
H 1.036973 -1.092821 -0.941335
H 1.000374 -1.209027 0.830564
H 4.276805 0.202414 0.094812
