13

C 1.212748 0.0 -1.034265
C 0.0 0.0 -1.733399
C -1.212748 0.0 -1.034265
C -1.219449 0.0 0.360955
C 0.0 0.0 1.067193
C 1.219449 0.0 0.360955
C 0.0 0.0 2.496925
N 0.0 0.0 3.672773
H 2.160225 0.0 -1.578832
H 0.0 0.0 -2.826211
H -2.160225 0.0 -1.578832
H -2.161259 0.0 0.913502
H 2.161259 0.0 0.913502
