16

C -1.160018 -1.177812 -0.080928
C 0.06191 -0.316579 0.232112
C 1.374712 -1.01844 -0.105085
O 2.513692 -0.201468 0.197563
C -0.756951 1.941849 -0.008701
O 0.077807 0.910333 -0.543564
H -1.184758 -1.442025 -1.149033
H -2.095603 -0.655269 0.166457
H -1.138455 -2.108344 0.507936
H 0.077581 -0.04556 1.304712
H 1.37051 -1.304407 -1.174492
H 1.472517 -1.935387 0.493146
H 2.294241 0.673073 -0.199104
H -0.485289 2.174621 1.038038
H -1.827405 1.672057 -0.050396
H -0.594492 2.833355 -0.628662
