12

C 1.396792 0.0 -0.096598
C 0.699343 0.0 -1.30608
C -0.699343 0.0 -1.30608
C -1.396792 0.0 -0.096598
C -0.702345 0.0 1.119041
C 0.702345 0.0 1.119041
Cl 1.608608 0.0 2.609337
Cl -1.608608 0.0 2.609337
H 2.488433 0.0 -0.078373
H 1.254387 0.0 -2.247328
H -1.254387 0.0 -2.247328
H -2.488433 0.0 -0.078373
