26

C -3.655626 0.546717 -0.469839
C -2.263141 0.988034 -0.004215
C -1.150588 -0.072154 -0.148294
C 0.223845 0.561588 0.151878
C 1.445181 -0.312922 -0.161675
C 2.781714 0.3997 0.087928
C 4.003672 -0.467772 -0.233314
C -1.419606 -1.306133 0.727147
H -3.641538 0.223936 -1.523918
H -4.378125 1.373663 -0.387747
H -4.049646 -0.288912 0.128118
H -2.312959 1.309999 1.051696
H -1.965547 1.882813 -0.577328
H -1.142308 -0.40029 -1.205349
H 0.253216 0.862569 1.215465
H 0.308306 1.498878 -0.426362
H 1.400443 -0.638576 -1.216789
H 1.418025 -1.235433 0.442094
H 2.827248 0.72453 1.142168
H 2.818656 1.324006 -0.514552
H 4.944563 0.074733 -0.05064
H 4.002942 -0.784697 -1.289129
H 4.020964 -1.380364 0.384646
H -0.646803 -2.077223 0.595535
H -2.38476 -1.775333 0.486811
H -1.438127 -1.031356 1.795666
