13

C -0.312068 0.517763 -1.266344
C 0.353601 -0.023816 0.0
C -0.312068 0.517763 1.266344
N 0.247507 -1.505065 0.0
H -1.371218 0.218405 -1.2999
H 0.177219 0.128046 -2.173547
H -0.256191 1.616385 -1.3039
H 1.411218 0.311197 0.0
H 0.177219 0.128046 2.173547
H -1.371218 0.218405 1.2999
H -0.256191 1.616385 1.3039
H 0.756094 -1.871756 0.816016
H 0.756094 -1.871756 -0.816016
