22

O -4.377826 -0.612051 -0.117911
C -3.216383 0.243076 -0.091973
C -1.897728 -0.528453 -0.062732
C -0.663446 0.384007 -0.083533
C 0.664078 -0.385058 -0.049396
C 1.899482 0.525907 -0.067792
C 3.216198 -0.248464 -0.027907
H -4.353058 -1.15118 0.702033
H -3.271987 0.9441 0.76252
H -3.286912 0.845848 -1.009136
H -1.876089 -1.21798 -0.922658
H -1.870955 -1.161622 0.843228
H -0.703087 1.077407 0.775064
H -0.692678 1.019203 -0.986001
H 0.705253 -1.074702 -0.910576
H 0.690925 -1.024175 0.850701
H 1.861341 1.213341 0.797427
H 1.891914 1.161704 -0.968456
H 3.298174 -0.908542 -0.904186
O 4.380901 0.600371 -0.090407
H 3.257037 -0.89454 0.86946
H 4.344847 1.191803 0.692231
