12

O     -1.204967    1.094763    0.804363
C     -1.474353    0.092629    0.174091
O     -2.637658   -0.062155   -0.476071
C     -0.667924   -1.125234    0.044637
C      0.667923   -1.125235   -0.044640
C      1.474353    0.092628   -0.174091
O      1.204972    1.094760   -0.804368
O      2.637654   -0.062156    0.476079
H     -3.089119    0.798008   -0.344375
H     -1.219564   -2.057400    0.063745
H      1.219562   -2.057401   -0.063751
H      3.089120    0.798004    0.344378
