16

C     -1.833723   -1.408099    0.101365
C     -2.527082   -0.202310    0.024372
C     -1.827668    1.002521   -0.058145
C     -0.429475    1.001077   -0.061918
C      0.278884   -0.204506    0.017947
C     -0.437092   -1.410578    0.098760
C      1.765271   -0.223365    0.043584
O      2.525551    0.660640    0.387171
O      2.254043   -1.407132   -0.382676
O      0.231291    2.191753   -0.170459
H     -2.377964   -2.347369    0.165018
H     -3.614570   -0.200873    0.025612
H     -2.387429    1.930961   -0.125692
H      0.088695   -2.360390    0.166994
H      3.223809   -1.272239   -0.334832
H     -0.401704    2.926280   -0.135010
