11

C     -1.989791    0.117286    0.000012
C     -0.747236   -0.755336   -0.000014
C      0.512481    0.065980   -0.000005
O      0.609017    1.280711   -0.000003
O      1.615528   -0.708640    0.000011
H     -2.017384    0.762230   -0.884618
H     -2.017376    0.762193    0.884669
H     -2.891448   -0.502814    0.000001
H     -0.747835   -1.390081    0.892146
H     -0.747847   -1.390051   -0.892196
H      2.355619   -0.065888    0.000047
