19

C     -2.866228    1.270285    0.591402
C     -2.335067    0.025104   -0.040963
O     -3.051283   -0.828837   -0.548775
C     -0.871834   -0.127583   -0.009391
C     -0.063466    0.984425   -0.134352
C      1.306162    0.809789   -0.101024
C      1.845431   -0.456942    0.054692
C      1.023902   -1.556002    0.177994
C     -0.345491   -1.390603    0.145769
O      3.220013   -0.642964    0.089414
O      2.137859    1.913327   -0.224766
H     -3.943246    1.159121    0.746801
H     -2.678801    2.120507   -0.069472
H     -2.372251    1.428405    1.553391
H     -0.494521    1.972094   -0.255862
H      1.449988   -2.545933    0.299727
H     -1.001848   -2.248836    0.241918
H      3.391680   -1.581834    0.300875
H      1.636084    2.704547    0.050630
