19

C     -2.989043    1.401642   -0.000089
C     -2.376137    0.025663    0.000004
O     -3.079736   -0.982393    0.000083
C     -0.888035   -0.106339    0.000003
C     -0.039258    1.008601    0.000028
C      1.343722    0.820448    0.000018
C      1.885161   -0.466244   -0.000009
C      1.049192   -1.578678   -0.000032
C     -0.336098   -1.397185   -0.000025
O      3.242171   -0.621578   -0.000016
O      2.188060    1.896062    0.000033
H     -4.079699    1.308950   -0.000184
H     -2.696099    1.947081   -0.900862
H     -2.696247    1.947125    0.900708
H     -0.439614    2.015838    0.000057
H      1.451355   -2.587111   -0.000054
H     -0.986596   -2.270873   -0.000044
H      3.455815   -1.567328   -0.000036
H      1.676102    2.718654    0.000008
