11

O      1.437778    0.910483    0.054241
C      1.317772   -0.299672   -0.068812
C      0.032718   -1.039417    0.012057
C     -1.197943   -0.505987    0.041527
C     -1.590326    0.934593   -0.039014
H      2.194206   -0.946466   -0.242658
H      0.147639   -2.118167    0.057836
H     -2.037838   -1.194472    0.125106
H     -2.415583    1.044635   -0.750572
H     -1.938768    1.281624    0.938333
H     -0.789398    1.592052   -0.379769
