21

O     -3.841507   -0.354438    0.404899
C     -2.554226   -0.685904    0.027901
O     -2.250371   -1.807526   -0.355767
C     -1.599179    0.523560    0.170942
C     -0.086423    0.415318   -0.233402
O      0.025734    0.311365   -1.669041
C      0.626300    1.732139    0.169726
O      1.840200    1.894678    0.152942
O     -0.237516    2.729456    0.559984
C      0.623172   -0.803992    0.454758
C      2.096944   -1.152555    0.125370
O      2.795664   -0.616268   -0.724014
O      2.561207   -2.185835    0.915702
H     -4.545956   -1.044993    0.285904
H     -2.052850    1.333037   -0.407854
H     -1.654742    0.827094    1.220071
H     -0.511419    1.000144   -2.117473
H      0.180768    3.611576    0.749741
H      0.045269   -1.706787    0.238787
H      0.581474   -0.662092    1.538287
H      3.484643   -2.509043    0.740094
