10

O      1.821979    0.158103   -0.000001
C      0.566335   -0.508641    0.000001
C     -0.566336    0.508644    0.000001
O     -1.821978   -0.158105   -0.000001
H      2.505279   -0.534411    0.000015
H      0.502022   -1.151787   -0.884123
H      0.502025   -1.151783    0.884128
H     -0.502028    1.151783    0.884130
H     -0.502028    1.151789   -0.884125
H     -2.505283    0.534403    0.000016
