24

C     -3.774149    0.613374   -0.099455
C     -2.540602   -0.171021    0.320082
C     -1.256651    0.492201   -0.187622
C      0.001520   -0.263997    0.258257
O     -0.032171   -1.571170   -0.308595
C      1.267331    0.471498   -0.201797
C      2.552425   -0.185604    0.310051
C      3.782298    0.614718   -0.090921
H     -3.846662    0.676494   -1.189902
H     -4.679330    0.124047    0.273551
H     -3.747867    1.631005    0.303111
H     -2.514634   -0.240907    1.413719
H     -2.619746   -1.192383   -0.069094
H     -1.292866    0.530276   -1.283865
H     -1.213717    1.525498    0.177534
H     -0.001124   -0.364180    1.350177
H      0.652277   -2.102779    0.131075
H      1.231569    1.510585    0.147765
H      1.300117    0.493578   -1.298534
H      2.518403   -0.268215    1.402474
H      2.647268   -1.200360   -0.091592
H      3.744849    1.626748    0.324674
H      3.861530    0.692627   -1.179949
H      4.689050    0.128175    0.281938
