12

O     -1.222972    1.202625   -0.583667
C     -1.537430    0.109471   -0.136711
O     -2.768841   -0.223532    0.352803
C     -0.667339   -1.088565   -0.079209
C      0.667339   -1.088565    0.079205
C      1.537430    0.109471    0.136711
O      1.222968    1.202625    0.583665
O      2.768844   -0.223531   -0.352797
H     -3.516724   -0.072846   -0.271963
H     -1.183997   -2.035694   -0.179565
H      1.183999   -2.035693    0.179558
H      3.516724   -0.072851    0.271975
