18

C      2.739585    0.184985    0.199459
C      1.435955   -0.262402   -0.414355
C      0.292315    0.432201    0.283327
C     -1.012012   -0.023070   -0.324086
O     -1.346574   -1.284059    0.232081
C     -2.109269    0.952345    0.023574
H      3.572458   -0.386027   -0.219234
H      2.910579    1.245908   -0.000582
H      2.723306    0.032706    1.281738
H      1.424880   -0.019349   -1.479981
H      1.330873   -1.345708   -0.313587
H      0.394362    1.515206    0.176328
H      0.308527    0.194816    1.350175
H     -0.918962   -0.130740   -1.407816
H     -2.209441   -1.531091   -0.141349
H     -1.871430    1.946838   -0.362714
H     -2.229777    1.019491    1.107915
H     -3.058055    0.628199   -0.412027
