18

C      2.790928    0.231945    0.173257
C      1.462753   -0.339254   -0.298501
C      0.286345    0.526527    0.161899
C     -1.057385   -0.014666   -0.334857
O     -1.278162   -1.305382    0.226741
C     -2.204480    0.900830    0.071462
H      3.617346   -0.400034   -0.166693
H      2.948240    1.239607   -0.224477
H      2.829725    0.283441    1.266034
H      1.468981   -0.405322   -1.392678
H      1.356988   -1.359235    0.088056
H      0.425898    1.552369   -0.200138
H      0.285927    0.560452    1.258862
H     -1.038015   -0.118426   -1.425626
H     -2.126277   -1.633991   -0.117204
H     -2.077375    1.905820   -0.342170
H     -2.279293    0.975335    1.161951
H     -3.159784    0.498022   -0.282035
