16

C      2.528551   -0.105508   -0.000022
C      1.285447    0.765724    0.000044
C     -0.000000   -0.045216   -0.000000
O     -0.000000   -1.275215   -0.000000
C     -1.285447    0.765724   -0.000044
C     -2.528551   -0.105508    0.000023
H      2.557217   -0.749909    0.884863
H      2.557202   -0.749793   -0.884992
H      3.429430    0.515738    0.000011
H      1.286358    1.404014   -0.889682
H      1.286366    1.403898    0.889853
H     -1.286357    1.404014    0.889681
H     -1.286366    1.403898   -0.889853
H     -3.429430    0.515739   -0.000009
H     -2.557218   -0.749909   -0.884863
H     -2.557201   -0.749794    0.884993
