16

C     -1.833723   -1.408099    0.101365
C     -2.527082   -0.202310    0.024372
C     -1.827668    1.002521   -0.058146
C     -0.429475    1.001077   -0.061918
C      0.278884   -0.204506    0.017947
C     -0.437091   -1.410578    0.098760
C      1.765271   -0.223365    0.043584
O      2.525551    0.660639    0.387173
O      2.254043   -1.407132   -0.382677
O      0.231291    2.191753   -0.170460
H     -2.377963   -2.347370    0.165020
H     -3.614570   -0.200873    0.025613
H     -2.387430    1.930961   -0.125692
H      0.088696   -2.360389    0.166995
H      3.223809   -1.272241   -0.334833
H     -0.401705    2.926280   -0.135017
