11

C     -1.930808    0.072858    0.000036
C     -0.697757   -0.798554   -0.000045
C      0.507875    0.084390   -0.000008
O      0.482295    1.306196   -0.000013
O      1.638395   -0.664890    0.000030
H     -1.949727    0.710120   -0.887989
H     -1.949459    0.710335    0.887913
H     -2.832553   -0.545803    0.000247
H     -0.669483   -1.431243    0.890883
H     -0.669516   -1.431126   -0.891056
H      2.449948   -0.112542    0.000036
