8

C      0.061732    0.000019   -0.000000
O      1.282065    0.000393    0.000000
N     -0.671553   -1.129100    0.000000
N     -0.672244    1.128689    0.000000
H     -1.677313   -1.132378    0.000008
H     -0.173246   -2.008240    0.000002
H     -0.174476    2.008134   -0.000001
H     -1.678006    1.131351   -0.000010
