92

C     18.309059    0.382624    0.000007
C     17.049223   -0.468446    0.000003
C     15.789044    0.396516   -0.000000
C     14.524064   -0.463364    0.000000
C     13.262900    0.402158   -0.000002
C     11.997943   -0.457786    0.000001
C     10.736805    0.407740   -0.000000
C      9.471856   -0.452206   -0.000001
C      8.210720    0.413319   -0.000003
C      6.945774   -0.446629   -0.000005
C      5.684636    0.418893   -0.000006
C      4.419693   -0.441058   -0.000004
C      3.158553    0.424462   -0.000005
C      1.893611   -0.435492   -0.000001
C      0.632470    0.430025   -0.000001
C     -0.632470   -0.429931    0.000002
C     -1.893613    0.435583    0.000001
C     -3.158551   -0.424375    0.000002
C     -4.419696    0.441136    0.000002
C     -5.684632   -0.418825    0.000002
C     -6.945779    0.446683    0.000004
C     -8.210714   -0.413281    0.000002
C     -9.471863    0.452225    0.000003
C    -10.736798   -0.407741    0.000003
C    -11.997952    0.457762    0.000003
C    -13.262892   -0.402206    0.000002
C    -14.524073    0.463291    0.000001
C    -15.789035   -0.396616   -0.000001
C    -17.049233    0.468320   -0.000003
C    -18.309050   -0.382778   -0.000005
H     18.350362    1.022328    0.887368
H     19.197898   -0.256028    0.000009
H     18.350366    1.022330   -0.887353
H     17.054678   -1.118774    0.882470
H     17.054683   -1.118773   -0.882465
H     15.790587    1.047966   -0.882429
H     15.790585    1.047969    0.882427
H     14.522618   -1.114626   -0.882532
H     14.522617   -1.114624    0.882534
H     13.264332    1.053410   -0.882534
H     13.264332    1.053414    0.882527
H     11.996502   -1.109042   -0.882528
H     11.996503   -1.109037    0.882534
H     10.738242    1.058994    0.882530
H     10.738243    1.058993   -0.882531
H      9.470419   -1.103460   -0.882531
H      9.470417   -1.103459    0.882530
H      8.212158    1.064572   -0.882534
H      8.212156    1.064573    0.882528
H      6.944336   -1.097883    0.882526
H      6.944338   -1.097883   -0.882535
H      5.686072    1.070145   -0.882538
H      5.686073    1.070148    0.882523
H      4.418257   -1.092311    0.882527
H      4.418256   -1.092313   -0.882534
H      3.159989    1.075718    0.882525
H      3.159987    1.075713   -0.882537
H      1.892176   -1.086748   -0.882529
H      1.892178   -1.086743    0.882532
H      0.633903    1.081277   -0.882534
H      0.633905    1.081281    0.882528
H     -0.633902   -1.081182    0.882534
H     -0.633903   -1.081187   -0.882527
H     -1.892180    1.086839    0.882530
H     -1.892181    1.086836   -0.882531
H     -3.159983   -1.075630   -0.882528
H     -3.159982   -1.075629    0.882534
H     -4.418265    1.092390   -0.882528
H     -4.418265    1.092389    0.882533
H     -5.686062   -1.070081    0.882531
H     -5.686063   -1.070078   -0.882530
H     -6.944350    1.097939   -0.882526
H     -6.944350    1.097935    0.882536
H     -8.212142   -1.064533   -0.882530
H     -8.212143   -1.064537    0.882531
H     -9.470435    1.103478    0.882535
H     -9.470435    1.103480   -0.882526
H    -10.738224   -1.058995   -0.882528
H    -10.738225   -1.058996    0.882533
H    -11.996523    1.109015    0.882534
H    -11.996523    1.109016   -0.882528
H    -13.264311   -1.053460   -0.882529
H    -13.264312   -1.053461    0.882533
H    -14.522641    1.114551    0.882535
H    -14.522639    1.114553   -0.882531
H    -15.790562   -1.048068   -0.882429
H    -15.790565   -1.048068    0.882427
H    -17.054703    1.118646   -0.882471
H    -17.054706    1.118647    0.882464
H    -18.350343   -1.022484    0.887355
H    -18.350341   -1.022483   -0.887366
H    -19.197903    0.255855   -0.000006
