12

C      1.588980   -0.589609   -0.000008
C      0.671159    0.589609    0.000019
C     -0.671159    0.589609   -0.000019
C     -1.588980   -0.589609    0.000008
H      2.230961   -0.556159   -0.885866
H      1.067424   -1.548655   -0.000428
H      2.230468   -0.556616    0.886222
H      1.173976    1.556388    0.000038
H     -1.173975    1.556389   -0.000043
H     -1.067428   -1.548657    0.000616
H     -2.231081   -0.556062    0.885775
H     -2.230348   -0.556709   -0.886313
