18

C      2.790928    0.231945    0.173256
C      1.462753   -0.339255   -0.298500
C      0.286345    0.526527    0.161900
C     -1.057385   -0.014666   -0.334857
O     -1.278162   -1.305382    0.226741
C     -2.204480    0.900830    0.071461
H      3.617346   -0.400036   -0.166691
H      2.948241    1.239605   -0.224483
H      2.829726    0.283445    1.266032
H      1.468980   -0.405324   -1.392676
H      1.356988   -1.359235    0.088059
H      0.425898    1.552369   -0.200136
H      0.285927    0.560451    1.258863
H     -1.038014   -0.118426   -1.425625
H     -2.126273   -1.633994   -0.117211
H     -2.077376    1.905819   -0.342173
H     -2.279292    0.975337    1.161950
H     -3.159784    0.498021   -0.282034
