14

C      0.023053    1.156173   -0.516958
C     -1.106206    0.790157    0.422827
O     -1.351886   -0.607785    0.232878
C     -0.163787   -1.195980   -0.333287
C      0.874357   -0.089080   -0.475715
O      1.724469   -0.053484    0.670255
H     -0.374090    1.299496   -1.528499
H      0.537763    2.067685   -0.201317
H     -2.020245    1.355300    0.220461
H     -0.823620    0.946721    1.469690
H      0.166671   -2.014315    0.312979
H     -0.445704   -1.598433   -1.311431
H      1.506584   -0.223598   -1.357808
H      2.351536    0.679876    0.548435
